REMARK  1 active torsions:
REMARK  status: ('A' for Active; 'I' for Inactive)
REMARK    1  A    between atoms: O1_2  and  C2_3 
ROOT
HETATM    1  C2  UNL     1       0.539  -0.197  -0.048  1.00  0.00     0.198 A 
HETATM    2  C3  UNL     1      -0.284  -1.255  -0.326  1.00  0.00     0.143 A 
HETATM    3  N1  UNL     1      -1.607  -1.110  -0.297  1.00  0.00    -0.237 NA
HETATM    4  C4  UNL     1      -2.136   0.076   0.007  1.00  0.00     0.120 A 
HETATM    5  C5  UNL     1      -1.292   1.122   0.283  1.00  0.00     0.122 A 
HETATM    6  N2  UNL     1       0.046   1.013   0.262  1.00  0.00    -0.218 NA
ENDROOT
BRANCH   1   7
HETATM    7  O1  UNL     1       1.941  -0.359  -0.082  1.00  0.00    -0.311 OA
HETATM    8  C1  UNL     1       2.793   0.711   0.200  1.00  0.00     0.183 C 
ENDBRANCH   1   7
TORSDOF 1
