REMARK  8 active torsions:
REMARK  status: ('A' for Active; 'I' for Inactive)
REMARK    1  A    between atoms: C2_2  and  C3_3 
REMARK    2  A    between atoms: C3_3  and  C4_4 
REMARK    3  A    between atoms: C4_4  and  N1_5 
REMARK    4  A    between atoms: C6_7  and  C8_10 
REMARK       I    between atoms: C8_10  and  N3_12 
REMARK    5  A    between atoms: N3_12  and  C9_13 
REMARK    6  A    between atoms: C14_18  and  C16_20 
REMARK       I    between atoms: C16_20  and  N4_22 
REMARK    7  A    between atoms: N4_22  and  C17_23 
REMARK    8  A    between atoms: C17_23  and  C18_24 
ROOT
HETATM    1  C9  UNL     1       1.579   0.385  -1.556  1.00  0.00     0.085 A 
HETATM    2  C10 UNL     1       1.669   1.476  -2.393  1.00  0.00     0.019 A 
HETATM    3  C11 UNL     1       0.527   2.017  -2.947  1.00  0.00    -0.003 A 
HETATM    4  C12 UNL     1      -0.688   1.442  -2.643  1.00  0.00    -0.017 A 
HETATM    5  C13 UNL     1      -1.899   2.054  -3.261  1.00  0.00     0.031 C 
HETATM    6  C14 UNL     1      -0.775   0.349  -1.804  1.00  0.00     0.055 A 
HETATM    7  C15 UNL     1       0.373  -0.203  -1.241  1.00  0.00     0.024 A 
ENDROOT
BRANCH   6   8
HETATM    8  C16 UNL     1      -2.062  -0.249  -1.490  1.00  0.00     0.275 C 
HETATM    9  O2  UNL     1      -2.141  -1.247  -0.727  1.00  0.00    -0.266 OA
HETATM   10  N4  UNL     1      -3.234   0.325  -2.071  1.00  0.00    -0.229 NA
BRANCH  10  11
HETATM   11  C17 UNL     1      -4.516  -0.276  -1.754  1.00  0.00     0.155 C 
BRANCH  11  12
HETATM   12  C18 UNL     1      -4.898   0.141  -0.365  1.00  0.00     0.004 A 
HETATM   13  C19 UNL     1      -4.513  -0.657   0.688  1.00  0.00    -0.000 A 
HETATM   14  C20 UNL     1      -4.860  -0.281   1.961  1.00  0.00     0.026 A 
HETATM   15  C21 UNL     1      -5.580   0.871   2.194  1.00  0.00     0.119 A 
HETATM   16  O3  UNL     1      -6.020   1.411   3.390  1.00  0.00    -0.300 OA
HETATM   17  C23 UNL     1      -5.965   1.667   1.147  1.00  0.00     0.119 A 
HETATM   18  C22 UNL     1      -6.853   2.505   3.054  1.00  0.00     0.304 C 
HETATM   19  O4  UNL     1      -6.670   2.748   1.674  1.00  0.00    -0.300 OA
HETATM   20  C24 UNL     1      -5.607   1.273  -0.122  1.00  0.00     0.024 A 
ENDBRANCH  11  12
ENDBRANCH  10  11
ENDBRANCH   6   8
BRANCH   1  21
HETATM   21  N3  UNL     1       2.782  -0.164  -0.989  1.00  0.00    -0.208 NA
HETATM   22  C8  UNL     1       2.751  -1.287  -0.122  1.00  0.00     0.282 C 
HETATM   23  O1  UNL     1       1.666  -1.814   0.159  1.00  0.00    -0.265 OA
BRANCH  22  24
HETATM   24  C6  UNL     1       4.023  -1.790   0.418  1.00  0.00     0.097 A 
HETATM   25  C5  UNL     1       5.281  -1.286   0.173  1.00  0.00     0.102 A 
HETATM   26  N1  UNL     1       6.226  -2.001   0.839  1.00  0.00    -0.249 N 
HETATM   27  N2  UNL     1       5.553  -2.943   1.492  1.00  0.00    -0.168 NA
HETATM   28  C7  UNL     1       4.233  -2.854   1.270  1.00  0.00     0.127 A 
BRANCH  26  29
HETATM   29  C4  UNL     1       7.645  -1.763   0.819  1.00  0.00     0.128 C 
BRANCH  29  30
HETATM   30  C3  UNL     1       8.168  -0.872   1.868  1.00  0.00     0.026 C 
BRANCH  30  31
HETATM   31  C2  UNL     1       7.645   0.525   1.923  1.00  0.00     0.002 C 
HETATM   32  C1  UNL     1       6.160   0.498   2.171  1.00  0.00     0.000 C 
ENDBRANCH  30  31
ENDBRANCH  29  30
ENDBRANCH  26  29
ENDBRANCH  22  24
ENDBRANCH   1  21
TORSDOF 8
