REMARK  3 active torsions:
REMARK  status: ('A' for Active; 'I' for Inactive)
REMARK    1  A    between atoms: C1_2  and  C6_9 
REMARK    2  A    between atoms: C11_15  and  O4_16 
REMARK    3  A    between atoms: O4_16  and  C12_17 
ROOT
HETATM    1  C6  UNL     1      -0.826  -0.759   0.198  1.00  0.00     0.042 A 
HETATM    2  C7  UNL     1      -1.467  -1.901   0.631  1.00  0.00     0.001 A 
HETATM    3  C8  UNL     1      -0.965  -3.134   0.277  1.00  0.00     0.001 A 
HETATM    4  C9  UNL     1       0.166  -3.267  -0.502  1.00  0.00     0.013 A 
HETATM    5  C10 UNL     1       0.817  -2.141  -0.943  1.00  0.00     0.080 A 
HETATM    6 CL1  UNL     1       2.273  -2.255  -1.946  1.00  0.00    -0.080 Cl
HETATM    7  C11 UNL     1       0.304  -0.912  -0.581  1.00  0.00     0.103 A 
ENDROOT
BRANCH   1   8
HETATM    8  C1  UNL     1      -1.341   0.584   0.562  1.00  0.00     0.248 C 
HETATM    9  O1  UNL     1      -0.410   1.326   1.280  1.00  0.00    -0.206 OA
HETATM   10  C2  UNL     1      -1.876   1.330  -0.581  1.00  0.00     0.189 C 
HETATM   11  O2  UNL     1      -1.564   1.335  -1.756  1.00  0.00    -0.293 OA
HETATM   12  C3  UNL     1      -2.995   2.193  -0.059  1.00  0.00     0.076 C 
HETATM   13  C4  UNL     1      -3.266   1.729   1.340  1.00  0.00     0.076 C 
HETATM   14  C5  UNL     1      -2.536   0.420   1.436  1.00  0.00     0.189 C 
HETATM   15  O3  UNL     1      -2.899  -0.513   2.096  1.00  0.00    -0.293 OA
ENDBRANCH   1   8
BRANCH   7  16
HETATM   16  O4  UNL     1       0.953   0.213  -1.020  1.00  0.00    -0.333 OA
BRANCH  16  17
HETATM   17  C12 UNL     1       1.971   0.783  -0.249  1.00  0.00     0.121 C 
HETATM   18  C13 UNL     1       2.584   2.000  -0.850  1.00  0.00     0.030 C 
HETATM   19  C14 UNL     1       3.789   2.222   0.053  1.00  0.00     0.003 C 
HETATM   20  C15 UNL     1       4.157   0.858   0.601  1.00  0.00     0.003 C 
HETATM   21  C16 UNL     1       3.131  -0.112   0.012  1.00  0.00     0.030 C 
ENDBRANCH  16  17
ENDBRANCH   7  16
TORSDOF 3
