REMARK  2 active torsions:
REMARK  status: ('A' for Active; 'I' for Inactive)
REMARK    1  A    between atoms: C2_3  and  C11_14 
REMARK    2  A    between atoms: C3_4  and  C5_7 
ROOT
HETATM    1  C11 UNL     1      -0.223  -1.632   0.768  1.00  0.00     0.037 C 
HETATM    2  C12 UNL     1      -0.628  -2.246  -0.553  1.00  0.00     0.003 C 
HETATM    3  C13 UNL     1       0.529  -2.605  -1.424  1.00  0.00     0.012 C 
HETATM    4  C14 UNL     1       1.628  -1.571  -1.430  1.00  0.00     0.109 C 
HETATM    5  C15 UNL     1       1.080  -0.293  -0.890  1.00  0.00     0.130 C 
HETATM    6  O2  UNL     1       1.959   0.802  -1.006  1.00  0.00    -0.330 OA
HETATM    7  C16 UNL     1       3.237   0.988  -0.529  1.00  0.00     0.122 A 
HETATM    8  C17 UNL     1       3.643   2.317  -0.511  1.00  0.00     0.082 A 
HETATM    9 CL1  UNL     1       2.519   3.529  -1.077  1.00  0.00    -0.080 Cl
HETATM   10  C18 UNL     1       4.907   2.614  -0.051  1.00  0.00     0.013 A 
HETATM   11  C19 UNL     1       5.779   1.637   0.392  1.00  0.00     0.003 A 
HETATM   12  C20 UNL     1       5.355   0.314   0.367  1.00  0.00     0.021 A 
HETATM   13  C21 UNL     1       4.092  -0.015  -0.090  1.00  0.00     0.107 A 
HETATM   14  N2  UNL     1       3.853  -1.413  -0.036  1.00  0.00    -0.210 NA
HETATM   15  C22 UNL     1       2.717  -2.077  -0.560  1.00  0.00     0.258 C 
HETATM   16  O3  UNL     1       2.664  -3.297  -0.202  1.00  0.00    -0.270 OA
HETATM   17  C23 UNL     1       0.771  -0.509   0.584  1.00  0.00     0.033 C 
ENDROOT
BRANCH   1  18
HETATM   18  C2  UNL     1      -1.488  -0.989   1.348  1.00  0.00     0.268 C 
HETATM   19  N1  UNL     1      -1.117  -0.386   2.633  1.00  0.00     0.346 N 
HETATM   20  C1  UNL     1      -0.603   0.933   2.317  1.00  0.00     0.354 C 
HETATM   21  C4  UNL     1      -1.594   1.381   1.279  1.00  0.00     0.193 C 
HETATM   22  C3  UNL     1      -1.882   0.182   0.467  1.00  0.00     0.116 C 
HETATM   23  O1  UNL     1      -2.005   2.508   1.210  1.00  0.00    -0.293 OA
BRANCH  22  24
HETATM   24  C5  UNL     1      -3.302   0.098   0.044  1.00  0.00    -0.013 A 
HETATM   25  C6  UNL     1      -3.745   0.597  -1.166  1.00  0.00    -0.002 A 
HETATM   26  C7  UNL     1      -5.067   0.512  -1.547  1.00  0.00     0.029 A 
HETATM   27  C8  UNL     1      -5.977  -0.087  -0.699  1.00  0.00     0.140 A 
HETATM   28  F1  UNL     1      -7.295  -0.196  -1.030  1.00  0.00    -0.204 F 
HETATM   29  C9  UNL     1      -5.570  -0.601   0.524  1.00  0.00     0.029 A 
HETATM   30  C10 UNL     1      -4.235  -0.495   0.868  1.00  0.00    -0.002 A 
ENDBRANCH  22  24
ENDBRANCH   1  18
TORSDOF 2
