REMARK  6 active torsions:
REMARK  status: ('A' for Active; 'I' for Inactive)
REMARK    1  A    between atoms: C1_2  and  C2_5 
REMARK    2  A    between atoms: C5_8  and  C6_9 
REMARK    3  A    between atoms: C6_9  and  N1_10 
REMARK       I    between atoms: N1_10  and  C7_11 
REMARK    4  A    between atoms: C7_11  and  C8_13 
REMARK    5  A    between atoms: C13_18  and  N2_19 
REMARK    6  A    between atoms: N2_19  and  C14_20 
ROOT
HETATM    1  N1  UNL     1      -0.178  -2.438  -0.079  1.00  0.00    -0.229 NA
HETATM    2  C7  UNL     1      -1.041  -1.347   0.172  1.00  0.00     0.277 C 
HETATM    3  O1  UNL     1      -0.797  -0.562   1.094  1.00  0.00    -0.266 OA
ENDROOT
BRANCH   2   4
HETATM    4  C8  UNL     1      -2.214  -1.124  -0.646  1.00  0.00     0.075 A 
HETATM    5  C9  UNL     1      -2.581  -1.935  -1.700  1.00  0.00     0.006 A 
HETATM    6  C10 UNL     1      -3.700  -1.699  -2.449  1.00  0.00     0.000 A 
HETATM    7  C11 UNL     1      -4.546  -0.624  -2.195  1.00  0.00     0.002 A 
HETATM    8  C12 UNL     1      -4.150   0.176  -1.128  1.00  0.00     0.019 A 
HETATM    9  C13 UNL     1      -3.053  -0.042  -0.381  1.00  0.00     0.081 A 
BRANCH   9  10
HETATM   10  N2  UNL     1      -2.689   0.827   0.706  1.00  0.00    -0.274 NA
BRANCH  10  11
HETATM   11  C14 UNL     1      -3.540   1.920   1.053  1.00  0.00     0.085 C 
HETATM   12  C15 UNL     1      -2.949   2.719   2.218  1.00  0.00     0.024 C 
HETATM   13  C16 UNL     1      -4.932   1.526   1.457  1.00  0.00     0.024 C 
HETATM   14  C17 UNL     1      -3.575   2.833  -0.179  1.00  0.00     0.024 C 
ENDBRANCH  10  11
ENDBRANCH   9  10
ENDBRANCH   2   4
BRANCH   1  15
HETATM   15  C6  UNL     1       0.957  -2.603   0.788  1.00  0.00     0.155 C 
BRANCH  15  16
HETATM   16  C5  UNL     1       1.975  -1.599   0.459  1.00  0.00     0.002 A 
HETATM   17  C4  UNL     1       3.072  -1.423   1.293  1.00  0.00    -0.002 A 
HETATM   18  C3  UNL     1       4.056  -0.484   1.021  1.00  0.00     0.004 A 
HETATM   19  C2  UNL     1       3.977   0.313  -0.111  1.00  0.00     0.071 A 
HETATM   20  C19 UNL     1       2.899   0.144  -0.936  1.00  0.00     0.004 A 
HETATM   21  C18 UNL     1       1.905  -0.794  -0.668  1.00  0.00    -0.002 A 
BRANCH  19  22
HETATM   22  C1  UNL     1       5.051   1.335  -0.396  1.00  0.00     0.419 C 
HETATM   23  F1  UNL     1       4.580   2.535   0.079  1.00  0.00    -0.166 F 
HETATM   24  F2  UNL     1       6.162   0.913   0.330  1.00  0.00    -0.166 F 
HETATM   25  F3  UNL     1       5.311   1.434  -1.745  1.00  0.00    -0.166 F 
ENDBRANCH  19  22
ENDBRANCH  15  16
ENDBRANCH   1  15
TORSDOF 6
