REMARK  4 active torsions:
REMARK  status: ('A' for Active; 'I' for Inactive)
REMARK    1  A    between atoms: O1_2  and  C2_3 
REMARK    2  A    between atoms: C7_9  and  S1_10 
REMARK    3  A    between atoms: S1_10  and  N1_13 
REMARK    4  A    between atoms: N1_13  and  N2_14 
ROOT
HETATM    1  N1  UNL     1       0.862   0.197  -1.367  1.00  0.00    -0.054 NA
ENDROOT
BRANCH   1   2
HETATM    2  S1  UNL     1       2.454  -0.020  -1.906  1.00  0.00     0.304 S 
HETATM    3  O3  UNL     1       2.745   1.021  -2.959  1.00  0.00    -0.197 OA
HETATM    4  O4  UNL     1       2.703  -1.378  -2.493  1.00  0.00    -0.197 OA
BRANCH   2   5
HETATM    5  C7  UNL     1       3.540   0.293  -0.564  1.00  0.00     0.131 A 
HETATM    6  C2  UNL     1       3.452  -0.473   0.593  1.00  0.00     0.106 A 
HETATM    7  C3  UNL     1       4.290  -0.251   1.665  1.00  0.00     0.027 A 
HETATM    8  C4  UNL     1       5.243   0.743   1.613  1.00  0.00     0.029 A 
HETATM    9  C5  UNL     1       5.333   1.503   0.468  1.00  0.00     0.132 A 
HETATM   10  O2  UNL     1       6.276   2.527   0.346  1.00  0.00    -0.190 OA
HETATM   11  C6  UNL     1       4.497   1.283  -0.601  1.00  0.00     0.042 A 
BRANCH   6  12
HETATM   12  O1  UNL     1       2.476  -1.473   0.616  1.00  0.00    -0.327 OA
HETATM   13  C1  UNL     1       2.321  -2.297   1.757  1.00  0.00     0.181 C 
ENDBRANCH   6  12
ENDBRANCH   2   5
ENDBRANCH   1   2
BRANCH   1  14
HETATM   14  N2  UNL     1       0.038  -0.757  -0.819  1.00  0.00    -0.138 NA
HETATM   15  C8  UNL     1      -1.209  -0.453  -0.622  1.00  0.00     0.124 A 
HETATM   16  C9  UNL     1      -1.850   0.842  -0.932  1.00  0.00     0.077 A 
HETATM   17  C16 UNL     1      -2.257  -1.299  -0.058  1.00  0.00     0.213 A 
HETATM   18  C10 UNL     1      -3.261   0.678  -0.525  1.00  0.00    -0.009 A 
HETATM   19  C11 UNL     1      -4.276   1.630  -0.619  1.00  0.00     0.026 A 
HETATM   20  C15 UNL     1      -3.514  -0.573  -0.010  1.00  0.00     0.064 A 
HETATM   21  C12 UNL     1      -5.540   1.337  -0.202  1.00  0.00     0.142 A 
HETATM   22  F1  UNL     1      -6.545   2.260  -0.288  1.00  0.00    -0.204 F 
HETATM   23  C13 UNL     1      -5.818   0.071   0.324  1.00  0.00     0.059 A 
HETATM   24  C14 UNL     1      -4.797  -0.852   0.407  1.00  0.00     0.145 A 
HETATM   25  F2  UNL     1      -5.096  -2.066   0.920  1.00  0.00    -0.204 F 
HETATM   26  O5  UNL     1      -2.065  -2.491   0.326  1.00  0.00    -0.285 OA
ENDBRANCH   1  14
TORSDOF 4
