REMARK  4 active torsions:
REMARK  status: ('A' for Active; 'I' for Inactive)
REMARK    1  A    between atoms: C4_5  and  N1_6 
REMARK       I    between atoms: N1_6  and  C5_7 
REMARK    2  A    between atoms: C5_7  and  C6_9 
REMARK    3  A    between atoms: C6_9  and  N2_10 
REMARK       I    between atoms: N2_10  and  C8_12 
REMARK    4  A    between atoms: C8_12  and  C9_14 
ROOT
HETATM    1  C6  UNL     1      -0.651   0.003   2.058  1.00  0.00     0.195 C 
ENDROOT
BRANCH   1   2
HETATM    2  C5  UNL     1       0.516  -0.038   1.165  1.00  0.00     0.279 C 
HETATM    3  N1  UNL     1       1.248  -1.262   0.934  1.00  0.00    -0.210 NA
HETATM    4  O2  UNL     1       0.906   0.998   0.579  1.00  0.00    -0.268 OA
BRANCH   3   5
HETATM    5  C4  UNL     1       2.364  -1.208   0.055  1.00  0.00     0.085 A 
HETATM    6  C3  UNL     1       3.110  -2.337  -0.213  1.00  0.00     0.021 A 
HETATM    7  C2  UNL     1       4.195  -2.305  -1.063  1.00  0.00     0.029 A 
HETATM    8  C1  UNL     1       4.583  -1.137  -1.684  1.00  0.00     0.131 A 
HETATM    9  O1  UNL     1       5.654  -1.071  -2.532  1.00  0.00    -0.190 OA
HETATM   10  C16 UNL     1       3.838  -0.007  -1.417  1.00  0.00     0.029 A 
HETATM   11  C15 UNL     1       2.747  -0.036  -0.564  1.00  0.00     0.021 A 
ENDBRANCH   3   5
ENDBRANCH   1   2
BRANCH   1  12
HETATM   12  N2  UNL     1      -1.224   1.313   2.100  1.00  0.00    -0.306 N 
HETATM   13  C7  UNL     1      -0.729   2.339   3.031  1.00  0.00     0.129 C 
HETATM   14  C8  UNL     1      -2.284   1.673   1.252  1.00  0.00     0.258 C 
HETATM   15  O3  UNL     1      -2.817   2.819   1.260  1.00  0.00    -0.267 OA
BRANCH  14  16
HETATM   16  C9  UNL     1      -2.827   0.710   0.314  1.00  0.00     0.066 A 
HETATM   17  C10 UNL     1      -3.751  -0.237   0.753  1.00  0.00     0.006 A 
HETATM   18  C11 UNL     1      -4.257  -1.184  -0.106  1.00  0.00     0.000 A 
HETATM   19  C12 UNL     1      -3.877  -1.242  -1.429  1.00  0.00     0.001 A 
HETATM   20  C13 UNL     1      -2.967  -0.312  -1.871  1.00  0.00     0.012 A 
HETATM   21  C14 UNL     1      -2.452   0.651  -1.001  1.00  0.00     0.062 A 
HETATM   22 CL1  UNL     1      -1.324   1.853  -1.622  1.00  0.00    -0.082 Cl
ENDBRANCH  14  16
ENDBRANCH   1  12
TORSDOF 4
