REMARK  4 active torsions:
REMARK  status: ('A' for Active; 'I' for Inactive)
REMARK    1  A    between atoms: S1_2  and  O3_5 
REMARK    2  A    between atoms: O3_5  and  C1_6 
REMARK    3  A    between atoms: C4_9  and  S2_13 
REMARK    4  A    between atoms: S2_13  and  N2_16 
ROOT
HETATM    1  C1  UNL     1       2.268   0.043   0.812  1.00  0.00     0.126 A 
HETATM    2  C2  UNL     1       1.217  -0.481   1.538  1.00  0.00     0.027 A 
HETATM    3  C3  UNL     1      -0.088  -0.088   1.317  1.00  0.00     0.015 A 
HETATM    4  C4  UNL     1      -0.407   0.851   0.357  1.00  0.00     0.099 A 
HETATM    5  C5  UNL     1       0.637   1.380  -0.373  1.00  0.00     0.026 A 
HETATM    6  C6  UNL     1       1.940   0.982  -0.147  1.00  0.00     0.082 A 
HETATM    7 CL1  UNL     1       3.259   1.662  -1.082  1.00  0.00    -0.080 Cl
ENDROOT
BRANCH   4   8
HETATM    8  S2  UNL     1      -2.063   1.353   0.073  1.00  0.00     0.247 S 
HETATM    9  O4  UNL     1      -2.038   2.784  -0.345  1.00  0.00    -0.206 OA
HETATM   10  O5  UNL     1      -2.861   1.183   1.353  1.00  0.00    -0.206 OA
BRANCH   8  11
HETATM   11  N2  UNL     1      -2.825   0.363  -1.118  1.00  0.00    -0.172 NA
HETATM   12  C7  UNL     1      -2.862  -1.008  -0.644  1.00  0.00     0.120 C 
HETATM   13  C8  UNL     1      -3.826  -1.170   0.514  1.00  0.00     0.161 C 
HETATM   14  O6  UNL     1      -5.031  -0.509   0.287  1.00  0.00    -0.351 OA
HETATM   15  C9  UNL     1      -5.163  -0.149  -1.075  1.00  0.00     0.161 C 
HETATM   16  C10 UNL     1      -4.126   0.900  -1.398  1.00  0.00     0.120 C 
ENDBRANCH   8  11
ENDBRANCH   4   8
BRANCH   1  17
HETATM   17  O3  UNL     1       3.574  -0.367   1.051  1.00  0.00    -0.211 OA
BRANCH  17  18
HETATM   18  S1  UNL     1       4.332  -1.649   0.287  1.00  0.00     0.406 S 
HETATM   19  N1  UNL     1       5.957  -1.162  -0.136  1.00  0.00    -0.021 N 
HETATM   20  O1  UNL     1       3.604  -2.154  -0.917  1.00  0.00    -0.172 OA
HETATM   21  O2  UNL     1       4.502  -2.765   1.308  1.00  0.00    -0.172 OA
ENDBRANCH  17  18
ENDBRANCH   1  17
TORSDOF 4
