REMARK  6 active torsions:
REMARK  status: ('A' for Active; 'I' for Inactive)
REMARK    1  A    between atoms: C1_2  and  C2_3 
REMARK    2  A    between atoms: C2_3  and  O1_4 
REMARK    3  A    between atoms: O1_4  and  C3_5 
REMARK    4  A    between atoms: N3_8  and  C5_9 
REMARK    5  A    between atoms: C5_9  and  C6_10 
REMARK       I    between atoms: C6_10  and  N4_12 
REMARK    6  A    between atoms: N4_12  and  N5_13 
ROOT
HETATM    1  C6  UNL     1      -0.394  -1.090   0.579  1.00  0.00     0.297 C 
HETATM    2  O2  UNL     1      -0.523  -0.859  -0.666  1.00  0.00    -0.267 OA
HETATM    3  N4  UNL     1      -1.153  -0.333   1.502  1.00  0.00    -0.130 NA
ENDROOT
BRANCH   1   4
HETATM    4  C5  UNL     1       0.576  -2.155   0.940  1.00  0.00     0.218 C 
BRANCH   4   5
HETATM    5  N3  UNL     1       1.796  -1.949   0.124  1.00  0.00    -0.238 N 
HETATM    6  N2  UNL     1       2.016  -2.480  -1.061  1.00  0.00    -0.165 NA
HETATM    7  C4  UNL     1       3.216  -2.044  -1.533  1.00  0.00     0.146 A 
HETATM    8  C3  UNL     1       3.779  -1.197  -0.594  1.00  0.00     0.134 A 
HETATM    9  C14 UNL     1       2.845  -1.170   0.436  1.00  0.00     0.121 A 
BRANCH   8  10
HETATM   10  O1  UNL     1       5.000  -0.561  -0.729  1.00  0.00    -0.325 OA
BRANCH  10  11
HETATM   11  C2  UNL     1       5.569   0.289   0.209  1.00  0.00     0.190 C 
BRANCH  11  12
HETATM   12  C1  UNL     1       4.752   1.506   0.555  1.00  0.00     0.371 C 
HETATM   13  N1  UNL     1       4.576   2.256  -0.670  1.00  0.00     0.621 N 
ENDBRANCH  11  12
ENDBRANCH  10  11
ENDBRANCH   8  10
ENDBRANCH   4   5
ENDBRANCH   1   4
BRANCH   3  14
HETATM   14  N5  UNL     1      -2.024   0.659   1.063  1.00  0.00    -0.247 N 
HETATM   15  C7  UNL     1      -1.837   2.070   1.363  1.00  0.00     0.134 C 
HETATM   16  C8  UNL     1      -2.403   2.733   0.110  1.00  0.00     0.074 C 
HETATM   17  C9  UNL     1      -3.487   1.774  -0.304  1.00  0.00     0.078 A 
HETATM   18  N6  UNL     1      -4.549   1.934  -1.077  1.00  0.00    -0.247 NA
HETATM   19  C13 UNL     1      -3.206   0.564   0.286  1.00  0.00     0.092 A 
HETATM   20  C10 UNL     1      -5.372   0.907  -1.298  1.00  0.00     0.099 A 
HETATM   21  C11 UNL     1      -5.135  -0.332  -0.731  1.00  0.00     0.022 A 
HETATM   22  C12 UNL     1      -4.042  -0.523   0.074  1.00  0.00     0.021 A 
ENDBRANCH   3  14
TORSDOF 6
