REMARK  4 active torsions:
REMARK  status: ('A' for Active; 'I' for Inactive)
REMARK    1  A    between atoms: C1_2  and  O1_4 
REMARK    2  A    between atoms: O1_4  and  C2_5 
REMARK    3  A    between atoms: C2_5  and  C3_6 
REMARK    4  A    between atoms: C3_6  and  C7_11 
ROOT
HETATM    1  C3  UNL     1       0.529  -1.168   0.124  1.00  0.00     0.077 C 
HETATM    2  C4  UNL     1       1.159  -0.797   1.438  1.00  0.00     0.041 C 
HETATM    3  C5  UNL     1       0.300  -1.532   2.414  1.00  0.00     0.143 C 
HETATM    4  O2  UNL     1      -0.537  -2.385   1.718  1.00  0.00    -0.354 OA
HETATM    5  C6  UNL     1       0.033  -2.576   0.461  1.00  0.00     0.149 C 
ENDROOT
BRANCH   1   6
HETATM    6  C2  UNL     1       1.403  -1.138  -1.060  1.00  0.00     0.157 C 
BRANCH   6   7
HETATM    7  O1  UNL     1       1.934   0.076  -1.353  1.00  0.00    -0.310 OA
BRANCH   7   8
HETATM    8  C1  UNL     1       2.748   0.984  -0.767  1.00  0.00     0.223 C 
HETATM    9  N1  UNL     1       3.161   2.094  -1.592  1.00  0.00    -0.063 NA
HETATM   10  S1  UNL     1       3.325   1.003   0.743  1.00  0.00    -0.037 SA
ENDBRANCH   7   8
ENDBRANCH   6   7
ENDBRANCH   1   6
BRANCH   1  11
HETATM   11  C7  UNL     1      -0.663  -0.275  -0.092  1.00  0.00    -0.018 A 
HETATM   12  C8  UNL     1      -0.638   0.978   0.511  1.00  0.00    -0.002 A 
HETATM   13  C9  UNL     1      -1.709   1.800   0.335  1.00  0.00     0.029 A 
HETATM   14  C10 UNL     1      -2.786   1.352  -0.443  1.00  0.00     0.140 A 
HETATM   15  F1  UNL     1      -3.805   2.223  -0.562  1.00  0.00    -0.204 F 
HETATM   16  C11 UNL     1      -2.774   0.103  -1.026  1.00  0.00     0.029 A 
HETATM   17  C12 UNL     1      -1.680  -0.742  -0.850  1.00  0.00    -0.002 A 
ENDBRANCH   1  11
TORSDOF 4
