REMARK  5 active torsions:
REMARK  status: ('A' for Active; 'I' for Inactive)
REMARK    1  A    between atoms: O1_2  and  C2_3 
REMARK    2  A    between atoms: C2_3  and  C3_5 
REMARK    3  A    between atoms: C3_5  and  C4_6 
REMARK    4  A    between atoms: C4_6  and  C5_7 
REMARK    5  A    between atoms: C9_12  and  N2_15 
ROOT
HETATM    1  C5  UNL     1       0.480  -1.250  -0.600  1.00  0.00     0.061 A 
HETATM    2  N1  UNL     1      -0.170  -2.064  -1.362  1.00  0.00    -0.250 NA
HETATM    3  C6  UNL     1      -1.438  -1.472  -1.090  1.00  0.00     0.082 A 
HETATM    4  C7  UNL     1      -2.814  -1.368  -1.228  1.00  0.00     0.021 A 
HETATM    5  C8  UNL     1      -3.468  -0.379  -0.535  1.00  0.00     0.025 A 
HETATM    6  C9  UNL     1      -2.795   0.506   0.287  1.00  0.00     0.127 A 
HETATM    7  C10 UNL     1      -1.429   0.398   0.421  1.00  0.00     0.026 A 
HETATM    8  C11 UNL     1      -0.769  -0.594  -0.273  1.00  0.00     0.033 A 
ENDROOT
BRANCH   1   9
HETATM    9  C4  UNL     1       1.914  -1.137  -0.278  1.00  0.00     0.056 C 
BRANCH   9  10
HETATM   10  C3  UNL     1       2.511   0.178  -0.653  1.00  0.00     0.102 C 
BRANCH  10  11
HETATM   11  C2  UNL     1       3.955   0.145  -0.269  1.00  0.00     0.272 C 
HETATM   12  O2  UNL     1       4.484  -0.853   0.268  1.00  0.00    -0.264 OA
BRANCH  11  13
HETATM   13  O1  UNL     1       4.772   1.249  -0.503  1.00  0.00    -0.299 OA
HETATM   14  C1  UNL     1       6.146   1.197  -0.129  1.00  0.00     0.184 C 
ENDBRANCH  11  13
ENDBRANCH  10  11
ENDBRANCH   9  10
ENDBRANCH   1   9
BRANCH   6  15
HETATM   15  N2  UNL     1      -3.539   1.519   0.984  1.00  0.00    -0.114 N 
HETATM   16  O3  UNL     1      -4.887   1.604   0.835  1.00  0.00    -0.532 OA
HETATM   17  O4  UNL     1      -2.955   2.322   1.726  1.00  0.00    -0.532 OA
ENDBRANCH   6  15
TORSDOF 5
