REMARK  9 active torsions:
REMARK  status: ('A' for Active; 'I' for Inactive)
REMARK    1  A    between atoms: O1_2  and  C2_3 
REMARK    2  A    between atoms: C2_3  and  C3_5 
REMARK    3  A    between atoms: C4_7  and  C5_8 
REMARK    4  A    between atoms: C5_8  and  C6_10 
REMARK    5  A    between atoms: C7_11  and  C8_13 
REMARK    6  A    between atoms: N1_18  and  C11_19 
REMARK    7  A    between atoms: C11_19  and  C12_20 
REMARK    8  A    between atoms: N2_28  and  C19_29 
REMARK    9  A    between atoms: C19_29  and  C20_30 
ROOT
HETATM    1  C8  UNL     1      -0.911  -0.218   0.344  1.00  0.00     0.177 C 
HETATM    2  O6  UNL     1      -1.760   0.730  -0.282  1.00  0.00    -0.186 OA
HETATM    3  C9  UNL     1       0.024   0.201   1.161  1.00  0.00     0.148 A 
HETATM    4  C10 UNL     1       1.020  -0.500   1.937  1.00  0.00     0.283 A 
HETATM    5  O7  UNL     1       1.194  -1.737   1.967  1.00  0.00    -0.265 OA
HETATM    6  N1  UNL     1       1.814   0.445   2.698  1.00  0.00    -0.243 N 
HETATM    7  C18 UNL     1       1.313   1.722   2.395  1.00  0.00     0.334 A 
HETATM    8  O8  UNL     1       1.781   2.795   2.894  1.00  0.00    -0.246 OA
HETATM    9  N2  UNL     1       0.247   1.599   1.479  1.00  0.00    -0.271 N 
ENDROOT
BRANCH   1  10
HETATM   10  C7  UNL     1      -1.193  -1.588  -0.008  1.00  0.00     0.161 C 
HETATM   11  C6  UNL     1      -2.180  -1.878  -0.858  1.00  0.00     0.072 C 
HETATM   12  O5  UNL     1      -0.503  -2.676   0.477  1.00  0.00    -0.188 OA
BRANCH  11  13
HETATM   13  C5  UNL     1      -2.508  -3.227  -1.246  1.00  0.00     0.200 C 
HETATM   14  O4  UNL     1      -1.850  -4.186  -0.784  1.00  0.00    -0.286 OA
BRANCH  13  15
HETATM   15  C4  UNL     1      -3.590  -3.480  -2.166  1.00  0.00     0.075 C 
HETATM   16  C3  UNL     1      -4.336  -2.528  -2.698  1.00  0.00     0.197 C 
HETATM   17  O3  UNL     1      -4.118  -1.173  -2.392  1.00  0.00    -0.184 OA
BRANCH  16  18
HETATM   18  C2  UNL     1      -5.402  -2.882  -3.616  1.00  0.00     0.322 C 
HETATM   19  O2  UNL     1      -5.610  -4.081  -3.909  1.00  0.00    -0.257 OA
BRANCH  18  20
HETATM   20  O1  UNL     1      -6.211  -1.911  -4.186  1.00  0.00    -0.294 OA
HETATM   21  C1  UNL     1      -7.232  -2.354  -5.082  1.00  0.00     0.185 C 
ENDBRANCH  18  20
ENDBRANCH  16  18
ENDBRANCH  13  15
ENDBRANCH  11  13
ENDBRANCH   1  10
BRANCH   9  22
HETATM   22  C19 UNL     1      -0.495   2.708   0.959  1.00  0.00     0.138 C 
BRANCH  22  23
HETATM   23  C20 UNL     1       0.163   3.397  -0.155  1.00  0.00     0.001 A 
HETATM   24  C21 UNL     1       0.763   4.640   0.026  1.00  0.00    -0.002 A 
HETATM   25  C22 UNL     1       1.396   5.310  -0.990  1.00  0.00    -0.000 A 
HETATM   26  C23 UNL     1       1.451   4.739  -2.261  1.00  0.00    -0.000 A 
HETATM   27  C24 UNL     1       0.872   3.523  -2.466  1.00  0.00    -0.000 A 
HETATM   28  C25 UNL     1       0.245   2.880  -1.421  1.00  0.00    -0.002 A 
ENDBRANCH  22  23
ENDBRANCH   9  22
BRANCH   6  29
HETATM   29  C11 UNL     1       2.896   0.037   3.570  1.00  0.00     0.141 C 
BRANCH  29  30
HETATM   30  C12 UNL     1       4.201   0.006   2.867  1.00  0.00     0.001 A 
HETATM   31  C13 UNL     1       4.569   0.962   1.925  1.00  0.00    -0.002 A 
HETATM   32  C14 UNL     1       5.799   0.888   1.297  1.00  0.00    -0.000 A 
HETATM   33  C15 UNL     1       6.707  -0.110   1.562  1.00  0.00    -0.000 A 
HETATM   34  C16 UNL     1       6.339  -1.063   2.502  1.00  0.00    -0.000 A 
HETATM   35  C17 UNL     1       5.104  -0.987   3.131  1.00  0.00    -0.002 A 
ENDBRANCH  29  30
ENDBRANCH   6  29
TORSDOF 9
