REMARK  1 active torsions:
REMARK  status: ('A' for Active; 'I' for Inactive)
REMARK    1  A    between atoms: C1_3  and  C2_4 
ROOT
HETATM    1  C2  UNL     1       0.199  -0.218  -0.286  1.00  0.00     0.048 A 
HETATM    2  C3  UNL     1       1.222  -0.972  -0.819  1.00  0.00     0.030 A 
HETATM    3  C4  UNL     1       2.392  -0.253  -0.685  1.00  0.00     0.123 A 
HETATM    4  O2  UNL     1       2.090   0.876  -0.101  1.00  0.00    -0.303 OA
HETATM    5  C5  UNL     1       0.807   0.936   0.151  1.00  0.00     0.124 A 
ENDROOT
BRANCH   1   6
HETATM    6  C1  UNL     1      -1.226  -0.578  -0.206  1.00  0.00     0.133 C 
HETATM    7  N1  UNL     1      -2.078   0.231   0.323  1.00  0.00    -0.095 NA
HETATM    8  O1  UNL     1      -3.405  -0.021   0.436  1.00  0.00    -0.061 OA
ENDBRANCH   1   6
TORSDOF 1
