REMARK  5 active torsions:
REMARK  status: ('A' for Active; 'I' for Inactive)
REMARK    1  A    between atoms: C7_8  and  C8_9 
REMARK    2  A    between atoms: C8_9  and  N1_10 
REMARK    3  A    between atoms: N3_16  and  C13_17 
REMARK    4  A    between atoms: C13_17  and  C14_18 
REMARK    5  A    between atoms: C17_21  and  C20_24 
ROOT
HETATM    1  N1  UNL     1      -3.600  -0.872   0.617  1.00  0.00    -0.165 N 
HETATM    2  N2  UNL     1      -3.146  -2.004   0.066  1.00  0.00    -0.153 NA
HETATM    3  C9  UNL     1      -1.914  -2.203   0.535  1.00  0.00     0.116 A 
HETATM    4  C10 UNL     1      -0.843  -3.226   0.361  1.00  0.00     0.053 C 
HETATM    5  C11 UNL     1      -0.164  -3.575   1.652  1.00  0.00     0.031 C 
HETATM    6  C12 UNL     1       0.385  -2.365   2.368  1.00  0.00     0.104 C 
HETATM    7  N3  UNL     1      -0.335  -1.158   2.031  1.00  0.00    -0.327 N 
HETATM    8  C26 UNL     1      -1.602  -1.151   1.410  1.00  0.00     0.177 A 
HETATM    9  N4  UNL     1      -2.684  -0.360   1.420  1.00  0.00    -0.133 NA
ENDROOT
BRANCH   7  10
HETATM   10  C13 UNL     1       0.286   0.111   2.350  1.00  0.00     0.130 C 
BRANCH  10  11
HETATM   11  C14 UNL     1       1.593   0.261   1.652  1.00  0.00     0.000 A 
HETATM   12  C15 UNL     1       1.759   1.230   0.702  1.00  0.00    -0.002 A 
HETATM   13  C16 UNL     1       2.957   1.393   0.021  1.00  0.00    -0.000 A 
HETATM   14  C17 UNL     1       4.031   0.573   0.283  1.00  0.00    -0.000 A 
HETATM   15  C18 UNL     1       3.851  -0.415   1.256  1.00  0.00    -0.000 A 
HETATM   16  C19 UNL     1       2.663  -0.575   1.931  1.00  0.00    -0.002 A 
BRANCH  14  17
HETATM   17  C20 UNL     1       5.320   0.695  -0.400  1.00  0.00    -0.000 A 
HETATM   18  C21 UNL     1       6.494   0.355   0.247  1.00  0.00    -0.000 A 
HETATM   19  C22 UNL     1       7.727   0.460  -0.383  1.00  0.00     0.000 A 
HETATM   20  C23 UNL     1       7.810   0.909  -1.682  1.00  0.00     0.000 A 
HETATM   21  C24 UNL     1       6.651   1.250  -2.337  1.00  0.00     0.000 A 
HETATM   22  C25 UNL     1       5.424   1.142  -1.700  1.00  0.00    -0.000 A 
ENDBRANCH  14  17
ENDBRANCH  10  11
ENDBRANCH   7  10
BRANCH   1  23
HETATM   23  C8  UNL     1      -4.906  -0.296   0.374  1.00  0.00     0.178 C 
BRANCH  23  24
HETATM   24  C7  UNL     1      -4.787   0.622  -0.786  1.00  0.00     0.025 A 
HETATM   25  C1  UNL     1      -4.206   1.872  -0.632  1.00  0.00     0.129 A 
HETATM   26  O1  UNL     1      -3.728   2.276   0.618  1.00  0.00    -0.190 OA
HETATM   27  C2  UNL     1      -4.135   2.661  -1.755  1.00  0.00     0.027 A 
HETATM   28  C3  UNL     1      -4.603   2.271  -2.989  1.00  0.00     0.002 A 
HETATM   29  C4  UNL     1      -5.171   1.031  -3.107  1.00  0.00    -0.004 A 
HETATM   30  C5  UNL     1      -5.254   0.222  -2.000  1.00  0.00    -0.022 A 
HETATM   31  C6  UNL     1      -5.873  -1.136  -2.123  1.00  0.00     0.031 C 
ENDBRANCH  23  24
ENDBRANCH   1  23
TORSDOF 5
