REMARK  7 active torsions:
REMARK  status: ('A' for Active; 'I' for Inactive)
REMARK    1  A    between atoms: C2_2  and  N1_3 
REMARK    2  A    between atoms: C3_4  and  C4_5 
REMARK    3  A    between atoms: C4_5  and  C5_6 
REMARK    4  A    between atoms: C5_6  and  N2_7 
REMARK    5  A    between atoms: N2_7  and  C6_8 
REMARK    6  A    between atoms: C6_8  and  C7_9 
REMARK    7  A    between atoms: C7_9  and  C8_11 
ROOT
HETATM    1  C4  UNL     1      -1.651  -1.157   2.045  1.00  0.00     0.084 C 
ENDROOT
BRANCH   1   2
HETATM    2  C3  UNL     1      -2.456  -1.028   0.806  1.00  0.00     0.059 A 
HETATM    3  N1  UNL     1      -2.758  -1.999  -0.066  1.00  0.00    -0.255 N 
HETATM    4  N4  UNL     1      -3.479  -1.451  -1.007  1.00  0.00    -0.170 NA
HETATM    5  C19 UNL     1      -3.675  -0.133  -0.799  1.00  0.00     0.102 A 
HETATM    6  C14 UNL     1      -3.017   0.162   0.375  1.00  0.00     0.033 A 
HETATM    7  C18 UNL     1      -4.354   0.864  -1.494  1.00  0.00     0.021 A 
HETATM    8  C15 UNL     1      -3.016   1.452   0.891  1.00  0.00     0.003 A 
HETATM    9  C16 UNL     1      -3.695   2.441   0.194  1.00  0.00     0.000 A 
HETATM   10  C17 UNL     1      -4.349   2.140  -0.977  1.00  0.00     0.002 A 
BRANCH   3  11
HETATM   11  C2  UNL     1      -2.318  -3.375   0.097  1.00  0.00     0.127 C 
HETATM   12  C1  UNL     1      -0.965  -3.518  -0.604  1.00  0.00     0.028 C 
ENDBRANCH   3  11
ENDBRANCH   1   2
BRANCH   1  13
HETATM   13  C5  UNL     1      -0.282  -0.585   1.778  1.00  0.00     0.297 C 
BRANCH  13  14
HETATM   14  N2  UNL     1      -0.338   0.818   1.401  1.00  0.00     0.347 N 
BRANCH  14  15
HETATM   15  C6  UNL     1       1.050   1.242   1.165  1.00  0.00     0.344 C 
BRANCH  15  16
HETATM   16  C7  UNL     1       1.509   0.527  -0.057  1.00  0.00     0.145 C 
HETATM   17  O1  UNL     1       0.750   0.827  -1.155  1.00  0.00    -0.193 OA
BRANCH  16  18
HETATM   18  C8  UNL     1       2.956   0.486  -0.264  1.00  0.00     0.023 A 
HETATM   19  C9  UNL     1       3.841   1.076   0.606  1.00  0.00     0.003 A 
HETATM   20  C10 UNL     1       5.205   1.009   0.370  1.00  0.00     0.014 A 
HETATM   21  C11 UNL     1       5.691   0.351  -0.738  1.00  0.00     0.070 A 
HETATM   22  N3  UNL     1       7.087   0.258  -1.018  1.00  0.00    -0.101 NA
HETATM   23  C12 UNL     1       4.803  -0.240  -1.609  1.00  0.00     0.014 A 
HETATM   24  C13 UNL     1       3.462  -0.166  -1.365  1.00  0.00     0.003 A 
ENDBRANCH  16  18
ENDBRANCH  15  16
ENDBRANCH  14  15
ENDBRANCH  13  14
ENDBRANCH   1  13
TORSDOF 7
