REMARK  7 active torsions:
REMARK  status: ('A' for Active; 'I' for Inactive)
REMARK    1  A    between atoms: C5_5  and  N1_6 
REMARK       I    between atoms: N1_6  and  C6_7 
REMARK    2  A    between atoms: C6_7  and  C7_9 
REMARK    3  A    between atoms: C7_9  and  C8_10 
REMARK    4  A    between atoms: C8_10  and  C9_11 
REMARK    5  A    between atoms: C9_11  and  S1_12 
REMARK    6  A    between atoms: S1_12  and  C10_13 
REMARK    7  A    between atoms: C13_19  and  C15_22 
ROOT
HETATM    1  C10 UNL     1       0.940   1.240  -2.351  1.00  0.00     0.130 A 
HETATM    2  N2  UNL     1       2.234   1.615  -2.263  1.00  0.00    -0.216 NA
HETATM    3  C11 UNL     1       2.604   2.610  -1.438  1.00  0.00     0.201 A 
HETATM    4  N3  UNL     1       1.638   3.203  -0.717  1.00  0.00    -0.199 NA
HETATM    5  C12 UNL     1       0.337   2.863  -0.772  1.00  0.00     0.205 A 
HETATM    6  O2  UNL     1      -0.755   3.282  -0.182  1.00  0.00    -0.270 OA
HETATM    7  C13 UNL     1      -1.806   2.630  -0.568  1.00  0.00     0.184 A 
HETATM    8  N4  UNL     1      -1.382   1.724  -1.466  1.00  0.00    -0.216 NA
HETATM    9  C14 UNL     1      -0.047   1.845  -1.615  1.00  0.00     0.148 A 
ENDROOT
BRANCH   1  10
HETATM   10  S1  UNL     1       0.422  -0.090  -3.449  1.00  0.00    -0.093 SA
BRANCH  10  11
HETATM   11  C9  UNL     1       0.524  -1.638  -2.504  1.00  0.00     0.064 C 
BRANCH  11  12
HETATM   12  C8  UNL     1      -0.525  -1.552  -1.411  1.00  0.00     0.022 C 
BRANCH  12  13
HETATM   13  C7  UNL     1      -0.492  -2.812  -0.584  1.00  0.00     0.091 C 
BRANCH  13  14
HETATM   14  C6  UNL     1       0.828  -3.014   0.054  1.00  0.00     0.256 C 
HETATM   15  N1  UNL     1       1.061  -4.145   0.873  1.00  0.00    -0.212 NA
HETATM   16  O1  UNL     1       1.753  -2.186  -0.125  1.00  0.00    -0.270 OA
BRANCH  15  17
HETATM   17  C5  UNL     1       2.333  -4.364   1.504  1.00  0.00     0.084 A 
HETATM   18  C4  UNL     1       2.548  -5.468   2.299  1.00  0.00     0.019 A 
HETATM   19  C3  UNL     1       3.778  -5.690   2.917  1.00  0.00    -0.003 A 
HETATM   20  C2  UNL     1       4.802  -4.783   2.728  1.00  0.00    -0.022 A 
HETATM   21  C1  UNL     1       6.151  -4.960   3.363  1.00  0.00     0.031 C 
HETATM   22  C22 UNL     1       4.609  -3.678   1.941  1.00  0.00    -0.003 A 
HETATM   23  C21 UNL     1       3.385  -3.480   1.340  1.00  0.00     0.019 A 
ENDBRANCH  15  17
ENDBRANCH  13  14
ENDBRANCH  12  13
ENDBRANCH  11  12
ENDBRANCH  10  11
ENDBRANCH   1  10
BRANCH   7  24
HETATM   24  C15 UNL     1      -3.202   2.772  -0.169  1.00  0.00     0.041 A 
HETATM   25  C16 UNL     1      -4.200   1.976  -0.693  1.00  0.00     0.004 A 
HETATM   26  C17 UNL     1      -5.520   2.111  -0.316  1.00  0.00     0.011 A 
HETATM   27  C18 UNL     1      -5.907   3.057   0.610  1.00  0.00     0.058 A 
HETATM   28 CL1  UNL     1      -7.591   3.233   1.093  1.00  0.00    -0.082 Cl
HETATM   29  C19 UNL     1      -4.919   3.858   1.140  1.00  0.00     0.011 A 
HETATM   30  C20 UNL     1      -3.601   3.717   0.759  1.00  0.00     0.004 A 
ENDBRANCH   7  24
TORSDOF 7
