REMARK  8 active torsions:
REMARK  status: ('A' for Active; 'I' for Inactive)
REMARK    1  A    between atoms: C2_2  and  C3_3 
REMARK    2  A    between atoms: C6_7  and  N2_8 
REMARK    3  A    between atoms: N2_8  and  C7_9 
REMARK    4  A    between atoms: N3_12  and  C10_13 
REMARK    5  A    between atoms: C10_13  and  C11_14 
REMARK    6  A    between atoms: C11_14  and  N4_15 
REMARK    7  A    between atoms: N5_29  and  C23_30 
REMARK    8  A    between atoms: C23_30  and  C24_31 
ROOT
HETATM    1  C7  UNL     1       0.804  -1.820   0.083  1.00  0.00     0.046 C 
HETATM    2  C8  UNL     1       1.814  -2.850   0.432  1.00  0.00     0.066 C 
HETATM    3  C9  UNL     1       3.050  -2.389   1.113  1.00  0.00     0.110 C 
HETATM    4  N3  UNL     1       3.595  -1.273   0.303  1.00  0.00    -0.317 N 
HETATM    5  C16 UNL     1       2.694  -0.212   0.093  1.00  0.00     0.238 C 
HETATM    6  O2  UNL     1       3.113   0.957  -0.005  1.00  0.00    -0.272 OA
HETATM    7  C17 UNL     1       1.221  -0.427  -0.020  1.00  0.00     0.103 C 
HETATM    8  C18 UNL     1       0.557   0.517   0.982  1.00  0.00     0.015 C 
HETATM    9  C19 UNL     1       0.857   0.103  -1.418  1.00  0.00     0.015 C 
ENDROOT
BRANCH   1  10
HETATM   10  N2  UNL     1      -0.522  -2.202   0.177  1.00  0.00    -0.254 NA
BRANCH  10  11
HETATM   11  C6  UNL     1      -1.679  -1.482  -0.104  1.00  0.00     0.082 A 
HETATM   12  C5  UNL     1      -1.758  -0.170  -0.489  1.00  0.00     0.040 A 
HETATM   13  C4  UNL     1      -2.970   0.413  -0.748  1.00  0.00     0.100 A 
HETATM   14  N1  UNL     1      -3.368   1.652  -1.136  1.00  0.00    -0.231 NA
HETATM   15  C22 UNL     1      -4.148  -0.316  -0.626  1.00  0.00     0.079 A 
HETATM   16  C3  UNL     1      -4.702   1.698  -1.250  1.00  0.00     0.121 A 
HETATM   17  N5  UNL     1      -5.197   0.484  -0.936  1.00  0.00    -0.305 N 
HETATM   18  C21 UNL     1      -4.066  -1.634  -0.239  1.00  0.00     0.020 A 
HETATM   19  C20 UNL     1      -2.875  -2.227   0.022  1.00  0.00     0.021 A 
BRANCH  16  20
HETATM   20  C2  UNL     1      -5.554   2.855  -1.646  1.00  0.00     0.064 C 
HETATM   21  C1  UNL     1      -5.928   3.617  -0.382  1.00  0.00     0.008 C 
ENDBRANCH  16  20
BRANCH  17  22
HETATM   22  C23 UNL     1      -6.586   0.081  -0.929  1.00  0.00     0.206 C 
BRANCH  22  23
HETATM   23  C24 UNL     1      -7.202   0.298   0.377  1.00  0.00     0.209 C 
HETATM   24  O3  UNL     1      -8.527  -0.018   0.584  1.00  0.00    -0.646 OA
HETATM   25  O4  UNL     1      -6.530   0.774   1.315  1.00  0.00    -0.646 OA
ENDBRANCH  22  23
ENDBRANCH  17  22
ENDBRANCH  10  11
ENDBRANCH   1  10
BRANCH   4  26
HETATM   26  C10 UNL     1       4.918  -1.375  -0.174  1.00  0.00     0.140 C 
BRANCH  26  27
HETATM   27  C11 UNL     1       6.000  -0.847   0.698  1.00  0.00     0.274 C 
BRANCH  27  28
HETATM   28  N4  UNL     1       5.873   0.590   0.922  1.00  0.00     0.144 N 
HETATM   29  C12 UNL     1       6.897   1.015   1.877  1.00  0.00     0.282 C 
HETATM   30  C13 UNL     1       8.043   1.591   1.109  1.00  0.00     0.178 C 
HETATM   31  O1  UNL     1       8.450   0.676   0.131  1.00  0.00    -0.350 OA
HETATM   32  C14 UNL     1       7.493   0.636  -0.890  1.00  0.00     0.178 C 
HETATM   33  C15 UNL     1       6.233   1.285  -0.331  1.00  0.00     0.282 C 
ENDBRANCH  27  28
ENDBRANCH  26  27
ENDBRANCH   4  26
TORSDOF 8
