REMARK  9 active torsions:
REMARK  status: ('A' for Active; 'I' for Inactive)
REMARK    1  A    between atoms: C2_2  and  O1_3 
REMARK    2  A    between atoms: O1_3  and  C3_4 
REMARK    3  A    between atoms: C6_7  and  S1_10 
REMARK    4  A    between atoms: S1_10  and  N1_13 
REMARK    5  A    between atoms: N2_16  and  C11_17 
REMARK    6  A    between atoms: C11_17  and  C12_18 
REMARK    7  A    between atoms: C12_18  and  C13_19 
REMARK    8  A    between atoms: C13_19  and  N3_21 
REMARK    9  A    between atoms: N3_21  and  C14_22 
ROOT
HETATM    1  N1  UNL     1       0.201  -0.810  -0.424  1.00  0.00    -0.173 NA
HETATM    2  C9  UNL     1       0.231  -0.752   1.003  1.00  0.00     0.124 C 
HETATM    3  C10 UNL     1      -1.129  -0.613   1.654  1.00  0.00     0.269 C 
HETATM    4  N2  UNL     1      -1.800   0.598   1.209  1.00  0.00     0.140 N 
HETATM    5  C18 UNL     1      -1.352   0.970  -0.127  1.00  0.00     0.269 C 
HETATM    6  C19 UNL     1      -1.075  -0.325  -0.907  1.00  0.00     0.124 C 
ENDROOT
BRANCH   1   7
HETATM    7  S1  UNL     1       1.428   0.155  -1.142  1.00  0.00     0.247 S 
HETATM    8  O2  UNL     1       1.235   0.102  -2.630  1.00  0.00    -0.206 OA
HETATM    9  O3  UNL     1       1.192   1.576  -0.721  1.00  0.00    -0.206 OA
BRANCH   7  10
HETATM   10  C6  UNL     1       3.032  -0.385  -0.676  1.00  0.00     0.099 A 
HETATM   11  C5  UNL     1       3.673   0.129   0.433  1.00  0.00     0.014 A 
HETATM   12  C4  UNL     1       4.933  -0.291   0.812  1.00  0.00     0.025 A 
HETATM   13  C3  UNL     1       5.612  -1.252   0.091  1.00  0.00     0.094 A 
HETATM   14  C8  UNL     1       4.979  -1.769  -1.015  1.00  0.00     0.025 A 
HETATM   15  C7  UNL     1       3.714  -1.347  -1.396  1.00  0.00     0.014 A 
BRANCH  13  16
HETATM   16  O1  UNL     1       6.885  -1.675   0.476  1.00  0.00    -0.331 OA
BRANCH  16  17
HETATM   17  C2  UNL     1       7.522  -1.132   1.619  1.00  0.00     0.149 C 
HETATM   18  C1  UNL     1       7.694   0.357   1.466  1.00  0.00     0.035 C 
ENDBRANCH  16  17
ENDBRANCH  13  16
ENDBRANCH   7  10
ENDBRANCH   1   7
BRANCH   4  19
HETATM   19  C11 UNL     1      -3.223   0.519   1.268  1.00  0.00     0.258 C 
BRANCH  19  20
HETATM   20  C12 UNL     1      -3.735  -0.452   0.250  1.00  0.00     0.092 C 
BRANCH  20  21
HETATM   21  C13 UNL     1      -5.197  -0.607   0.232  1.00  0.00     0.110 C 
HETATM   22  S2  UNL     1      -5.752  -2.125   0.597  1.00  0.00    -0.063 SA
BRANCH  21  23
HETATM   23  N3  UNL     1      -6.088   0.425  -0.067  1.00  0.00    -0.268 NA
BRANCH  23  24
HETATM   24  C14 UNL     1      -5.808   1.785  -0.402  1.00  0.00     0.085 C 
HETATM   25  C15 UNL     1      -4.882   1.899  -1.618  1.00  0.00     0.024 C 
HETATM   26  C16 UNL     1      -7.134   2.482  -0.708  1.00  0.00     0.024 C 
HETATM   27  C17 UNL     1      -5.157   2.539   0.733  1.00  0.00     0.024 C 
ENDBRANCH  23  24
ENDBRANCH  21  23
ENDBRANCH  20  21
ENDBRANCH  19  20
ENDBRANCH   4  19
TORSDOF 9
