REMARK  0 active torsions:
REMARK  status: ('A' for Active; 'I' for Inactive)
ROOT
HETATM    1  O1  UNL     1      -3.771  -0.423  -1.334  1.00  0.00    -0.268 OA
HETATM    2  C1  UNL     1      -2.739   0.210  -0.964  1.00  0.00     0.285 A 
HETATM    3  N1  UNL     1      -2.225   1.426  -1.323  1.00  0.00    -0.205 NA
HETATM    4  C2  UNL     1      -1.248   1.320  -0.615  1.00  0.00     0.123 A 
HETATM    5  S1  UNL     1       0.311   1.956   0.048  1.00  0.00    -0.068 SA
HETATM    6  C3  UNL     1       1.244   0.493   0.434  1.00  0.00     0.048 A 
HETATM    7  C4  UNL     1       2.526   0.683   0.886  1.00  0.00     0.008 A 
HETATM    8  C5  UNL     1       3.290  -0.434   1.198  1.00  0.00     0.001 A 
HETATM    9  C6  UNL     1       2.755  -1.699   1.051  1.00  0.00     0.002 A 
HETATM   10  C7  UNL     1       1.473  -1.868   0.598  1.00  0.00     0.019 A 
HETATM   11  C8  UNL     1       0.699  -0.735   0.282  1.00  0.00     0.083 A 
HETATM   12  N2  UNL     1      -0.655  -0.964  -0.190  1.00  0.00    -0.256 NA
HETATM   13  C9  UNL     1      -1.663   0.035  -0.073  1.00  0.00     0.229 A 
ENDROOT
TORSDOF 0
