REMARK  17 active torsions:
REMARK  status: ('A' for Active; 'I' for Inactive)
REMARK    1  A    between atoms: C2_2  and  C4_4 
REMARK    2  A    between atoms: C4_4  and  C5_5 
REMARK    3  A    between atoms: C5_5  and  N1_6 
REMARK    4  A    between atoms: C5_5  and  C8_10 
REMARK       I    between atoms: N1_6  and  C6_7 
REMARK       I    between atoms: C8_10  and  N2_12 
REMARK    5  A    between atoms: N2_12  and  C9_13 
REMARK    6  A    between atoms: C9_13  and  C10_14 
REMARK    7  A    between atoms: C9_13  and  C17_21 
REMARK    8  A    between atoms: C10_14  and  C11_15 
REMARK       I    between atoms: C17_21  and  N3_23 
REMARK    9  A    between atoms: N3_23  and  C18_24 
REMARK   10  A    between atoms: N3_23  and  C25_31 
REMARK   11  A    between atoms: C18_24  and  C19_25 
REMARK   12  A    between atoms: C25_31  and  C26_32 
REMARK   13  A    between atoms: C25_31  and  C27_35 
REMARK   14  A    between atoms: C27_35  and  C28_37 
REMARK   15  A    between atoms: C29_38  and  C30_39 
REMARK   16  A    between atoms: C30_39  and  C31_40 
REMARK   17  A    between atoms: C32_41  and  C33_42 
ROOT
HETATM    1  C17 UNL     1       0.572  -1.000  -1.022  1.00  0.00     0.257 C 
HETATM    2  O3  UNL     1       0.661  -1.504  -2.167  1.00  0.00    -0.270 OA
HETATM    3  N3  UNL     1      -0.295  -1.568  -0.075  1.00  0.00    -0.302 N 
ENDROOT
BRANCH   3   4
HETATM    4  C18 UNL     1      -0.929  -2.847  -0.441  1.00  0.00     0.132 C 
BRANCH   4   5
HETATM    5  C19 UNL     1       0.034  -3.878   0.096  1.00  0.00     0.000 A 
HETATM    6  C20 UNL     1       0.033  -5.167  -0.379  1.00  0.00    -0.002 A 
HETATM    7  C21 UNL     1       0.939  -6.097   0.138  1.00  0.00    -0.000 A 
HETATM    8  C22 UNL     1       1.843  -5.762   1.118  1.00  0.00    -0.000 A 
HETATM    9  C23 UNL     1       1.845  -4.479   1.592  1.00  0.00    -0.000 A 
HETATM   10  C24 UNL     1       0.951  -3.574   1.076  1.00  0.00    -0.002 A 
ENDBRANCH   4   5
ENDBRANCH   3   4
BRANCH   3  11
HETATM   11  C25 UNL     1      -0.670  -1.012   1.194  1.00  0.00     0.222 C 
BRANCH  11  12
HETATM   12  C26 UNL     1      -0.905   0.438   1.183  1.00  0.00     0.271 C 
HETATM   13  N4  UNL     1      -1.014   1.161  -0.011  1.00  0.00    -0.059 NA
HETATM   14  O4  UNL     1      -1.011   1.034   2.282  1.00  0.00    -0.273 OA
ENDBRANCH  11  12
BRANCH  11  15
HETATM   15  C27 UNL     1      -1.897  -1.717   1.709  1.00  0.00     0.202 C 
HETATM   16  O5  UNL     1      -2.265  -2.835   1.345  1.00  0.00    -0.289 OA
BRANCH  15  17
HETATM   17  C28 UNL     1      -2.692  -1.011   2.702  1.00  0.00     0.036 C 
HETATM   18  C29 UNL     1      -3.794  -1.485   3.243  1.00  0.00    -0.018 C 
BRANCH  18  19
HETATM   19  C30 UNL     1      -4.508  -0.636   4.252  1.00  0.00     0.052 C 
BRANCH  19  20
HETATM   20  C31 UNL     1      -3.757   0.636   4.454  1.00  0.00    -0.021 C 
HETATM   21  C32 UNL     1      -4.161   1.822   4.096  1.00  0.00    -0.003 C 
BRANCH  21  22
HETATM   22  C33 UNL     1      -5.434   2.003   3.438  1.00  0.00     0.019 A 
HETATM   23  C34 UNL     1      -6.268   0.932   3.252  1.00  0.00     0.003 A 
HETATM   24  C35 UNL     1      -7.483   1.105   2.586  1.00  0.00     0.021 A 
HETATM   25  C36 UNL     1      -7.860   2.317   2.115  1.00  0.00     0.099 A 
HETATM   26  N5  UNL     1      -7.032   3.392   2.296  1.00  0.00    -0.242 NA
HETATM   27  C37 UNL     1      -5.868   3.210   2.940  1.00  0.00     0.099 A 
ENDBRANCH  21  22
ENDBRANCH  19  20
ENDBRANCH  18  19
ENDBRANCH  15  17
ENDBRANCH  11  15
ENDBRANCH   3  11
BRANCH   1  28
HETATM   28  C9  UNL     1       1.441   0.199  -0.766  1.00  0.00     0.189 C 
BRANCH  28  29
HETATM   29  N2  UNL     1       1.614   0.922  -2.052  1.00  0.00    -0.228 NA
HETATM   30  C8  UNL     1       2.755   1.741  -2.183  1.00  0.00     0.274 C 
HETATM   31  O2  UNL     1       3.553   1.795  -1.182  1.00  0.00    -0.268 OA
BRANCH  30  32
HETATM   32  C5  UNL     1       3.145   2.555  -3.357  1.00  0.00     0.186 C 
BRANCH  32  33
HETATM   33  C4  UNL     1       2.496   3.943  -3.314  1.00  0.00     0.034 C 
BRANCH  33  34
HETATM   34  C2  UNL     1       1.032   3.962  -3.407  1.00  0.00     0.002 C 
HETATM   35  C1  UNL     1       0.249   3.260  -2.367  1.00  0.00     0.000 C 
HETATM   36  C3  UNL     1       0.499   5.375  -3.670  1.00  0.00     0.000 C 
ENDBRANCH  33  34
ENDBRANCH  32  33
BRANCH  32  37
HETATM   37  N1  UNL     1       4.589   2.850  -3.276  1.00  0.00    -0.230 NA
HETATM   38  C6  UNL     1       5.084   4.142  -3.034  1.00  0.00     0.252 C 
HETATM   39  C7  UNL     1       6.573   4.405  -2.961  1.00  0.00     0.100 C 
HETATM   40  O1  UNL     1       4.302   5.096  -2.874  1.00  0.00    -0.271 OA
ENDBRANCH  32  37
ENDBRANCH  30  32
ENDBRANCH  28  29
BRANCH  28  41
HETATM   41  C10 UNL     1       2.885  -0.339  -0.530  1.00  0.00     0.060 C 
BRANCH  41  42
HETATM   42  C11 UNL     1       3.225  -1.259  -1.664  1.00  0.00    -0.020 A 
HETATM   43  C12 UNL     1       3.003  -2.605  -1.404  1.00  0.00    -0.004 A 
HETATM   44  C13 UNL     1       3.225  -3.585  -2.334  1.00  0.00    -0.000 A 
HETATM   45  C14 UNL     1       3.695  -3.189  -3.585  1.00  0.00    -0.000 A 
HETATM   46  C15 UNL     1       3.918  -1.855  -3.847  1.00  0.00    -0.000 A 
HETATM   47  C16 UNL     1       3.680  -0.890  -2.877  1.00  0.00    -0.004 A 
ENDBRANCH  41  42
ENDBRANCH  28  41
ENDBRANCH   1  28
TORSDOF 17
