REMARK  5 active torsions:
REMARK  status: ('A' for Active; 'I' for Inactive)
REMARK    1  A    between atoms: O1_2  and  C2_3 
REMARK    2  A    between atoms: C2_3  and  C3_5 
REMARK    3  A    between atoms: C6_8  and  N1_9 
REMARK       I    between atoms: N1_9  and  C7_10 
REMARK    4  A    between atoms: C7_10  and  C8_12 
REMARK       I    between atoms: N2_18  and  C14_19 
REMARK    5  A    between atoms: C14_19  and  C15_21 
ROOT
HETATM    1  C8  UNL     1      -1.652  -1.039  -0.822  1.00  0.00     0.165 C 
HETATM    2  C9  UNL     1      -1.682  -1.683  -2.180  1.00  0.00     0.032 C 
HETATM    3  C10 UNL     1      -0.789  -2.889  -2.287  1.00  0.00     0.003 C 
HETATM    4  C11 UNL     1      -1.326  -4.067  -1.506  1.00  0.00     0.002 C 
HETATM    5  C12 UNL     1      -1.095  -3.779  -0.025  1.00  0.00     0.024 C 
HETATM    6  C13 UNL     1      -2.352  -3.150   0.501  1.00  0.00     0.105 C 
HETATM    7  N2  UNL     1      -2.448  -1.748   0.143  1.00  0.00    -0.310 N 
HETATM    8  C14 UNL     1      -3.437  -0.994   0.819  1.00  0.00     0.258 C 
HETATM    9  O4  UNL     1      -4.165  -1.560   1.675  1.00  0.00    -0.267 OA
ENDROOT
BRANCH   1  10
HETATM   10  C7  UNL     1      -0.260  -0.810  -0.334  1.00  0.00     0.277 C 
HETATM   11  N1  UNL     1       0.722  -0.144  -1.076  1.00  0.00    -0.191 NA
HETATM   12  O3  UNL     1       0.031  -1.245   0.807  1.00  0.00    -0.268 OA
BRANCH  11  13
HETATM   13  C6  UNL     1       2.045   0.092  -0.650  1.00  0.00     0.165 A 
HETATM   14  C5  UNL     1       2.908   0.765  -1.490  1.00  0.00     0.039 A 
HETATM   15  C4  UNL     1       4.219   1.034  -1.145  1.00  0.00     0.010 A 
HETATM   16  C3  UNL     1       4.691   0.619   0.080  1.00  0.00     0.082 A 
HETATM   17  C21 UNL     1       3.821  -0.051   0.909  1.00  0.00     0.106 A 
HETATM   18  N3  UNL     1       2.541  -0.298   0.538  1.00  0.00    -0.225 NA
BRANCH  16  19
HETATM   19  C2  UNL     1       6.086   0.885   0.491  1.00  0.00     0.297 C 
HETATM   20  O2  UNL     1       6.512   0.505   1.609  1.00  0.00    -0.259 OA
BRANCH  19  21
HETATM   21  O1  UNL     1       6.965   1.557  -0.334  1.00  0.00    -0.296 OA
HETATM   22  C1  UNL     1       8.295   1.794   0.092  1.00  0.00     0.185 C 
ENDBRANCH  19  21
ENDBRANCH  16  19
ENDBRANCH  11  13
ENDBRANCH   1  10
BRANCH   8  23
HETATM   23  C15 UNL     1      -3.660   0.424   0.574  1.00  0.00     0.067 A 
HETATM   24  C16 UNL     1      -4.558   0.836  -0.395  1.00  0.00     0.008 A 
HETATM   25  C17 UNL     1      -4.790   2.167  -0.649  1.00  0.00     0.030 A 
HETATM   26  C18 UNL     1      -4.135   3.155   0.056  1.00  0.00     0.141 A 
HETATM   27  F1  UNL     1      -4.374   4.480  -0.205  1.00  0.00    -0.204 F 
HETATM   28  C19 UNL     1      -3.238   2.762   1.024  1.00  0.00     0.041 A 
HETATM   29  C20 UNL     1      -3.009   1.422   1.275  1.00  0.00     0.065 A 
HETATM   30 CL1  UNL     1      -1.867   0.960   2.507  1.00  0.00    -0.082 Cl
ENDBRANCH   8  23
TORSDOF 5
