REMARK  12 active torsions:
REMARK  status: ('A' for Active; 'I' for Inactive)
REMARK    1  A    between atoms: C2_2  and  C3_3 
REMARK    2  A    between atoms: C3_3  and  C4_4 
REMARK    3  A    between atoms: C4_4  and  C5_5 
REMARK    4  A    between atoms: C5_5  and  C6_6 
REMARK    5  A    between atoms: C11_11  and  C12_12 
REMARK    6  A    between atoms: C12_12  and  C13_13 
REMARK       I    between atoms: C13_13  and  N1_15 
REMARK    7  A    between atoms: N1_15  and  C14_16 
REMARK    8  A    between atoms: C14_16  and  C15_17 
REMARK    9  A    between atoms: C14_16  and  C23_29 
REMARK   10  A    between atoms: C15_17  and  C16_19 
REMARK   11  A    between atoms: C19_22  and  C22_25 
REMARK   12  A    between atoms: C26_33  and  C31_38 
ROOT
HETATM    1  C14 UNL     1      -0.728   0.180   1.202  1.00  0.00     0.191 C 
ENDROOT
BRANCH   1   2
HETATM    2  N1  UNL     1       0.667   0.115   1.597  1.00  0.00    -0.227 NA
HETATM    3  C13 UNL     1       1.558  -0.884   1.160  1.00  0.00     0.257 C 
HETATM    4  O1  UNL     1       1.129  -1.773   0.367  1.00  0.00    -0.270 OA
BRANCH   3   5
HETATM    5  C12 UNL     1       2.989  -0.933   1.604  1.00  0.00     0.116 C 
BRANCH   5   6
HETATM    6  C11 UNL     1       3.662  -2.060   0.914  1.00  0.00    -0.017 A 
HETATM    7  C6  UNL     1       4.091  -1.833  -0.383  1.00  0.00    -0.026 A 
HETATM    8  C7  UNL     1       4.718  -2.790  -1.141  1.00  0.00    -0.005 A 
HETATM    9  C8  UNL     1       4.906  -4.027  -0.526  1.00  0.00    -0.000 A 
HETATM   10  C9  UNL     1       4.494  -4.278   0.752  1.00  0.00    -0.000 A 
HETATM   11  C10 UNL     1       3.870  -3.287   1.467  1.00  0.00    -0.004 A 
BRANCH   7  12
HETATM   12  C5  UNL     1       3.877  -0.488  -1.000  1.00  0.00     0.026 C 
BRANCH  12  13
HETATM   13  C4  UNL     1       4.843   0.517  -0.432  1.00  0.00     0.005 C 
BRANCH  13  14
HETATM   14  C3  UNL     1       6.264   0.087  -0.705  1.00  0.00     0.000 C 
BRANCH  14  15
HETATM   15  C2  UNL     1       7.178   1.158  -0.089  1.00  0.00     0.000 C 
HETATM   16  C1  UNL     1       8.626   0.834  -0.283  1.00  0.00     0.000 C 
ENDBRANCH  14  15
ENDBRANCH  13  14
ENDBRANCH  12  13
ENDBRANCH   7  12
ENDBRANCH   5   6
ENDBRANCH   3   5
ENDBRANCH   1   2
BRANCH   1  17
HETATM   17  C15 UNL     1      -1.024  -0.407  -0.100  1.00  0.00     0.199 C 
HETATM   18  O2  UNL     1      -0.310  -0.233  -1.093  1.00  0.00    -0.289 OA
BRANCH  17  19
HETATM   19  C16 UNL     1      -2.216  -1.235  -0.208  1.00  0.00     0.037 A 
HETATM   20  C17 UNL     1      -2.571  -1.797  -1.410  1.00  0.00     0.003 A 
HETATM   21  C18 UNL     1      -3.671  -2.620  -1.486  1.00  0.00     0.004 A 
HETATM   22  C19 UNL     1      -4.465  -2.928  -0.408  1.00  0.00     0.071 A 
HETATM   23  C20 UNL     1      -4.098  -2.353   0.795  1.00  0.00     0.004 A 
HETATM   24  C21 UNL     1      -3.005  -1.529   0.899  1.00  0.00     0.003 A 
BRANCH  22  25
HETATM   25  C22 UNL     1      -5.656  -3.832  -0.480  1.00  0.00     0.419 C 
HETATM   26  F1  UNL     1      -6.633  -3.395  -1.313  1.00  0.00    -0.166 F 
HETATM   27  F2  UNL     1      -5.238  -5.080  -0.941  1.00  0.00    -0.166 F 
HETATM   28  F3  UNL     1      -6.156  -4.030   0.790  1.00  0.00    -0.166 F 
ENDBRANCH  22  25
ENDBRANCH  17  19
ENDBRANCH   1  17
BRANCH   1  29
HETATM   29  C23 UNL     1      -1.191   1.604   1.187  1.00  0.00     0.028 A 
HETATM   30  C24 UNL     1      -1.948   2.284   2.136  1.00  0.00     0.097 A 
HETATM   31  N2  UNL     1      -2.143   3.564   1.710  1.00  0.00    -0.244 NA
HETATM   32  C25 UNL     1      -1.556   3.758   0.540  1.00  0.00     0.085 A 
HETATM   33  C26 UNL     1      -1.464   4.870  -0.285  1.00  0.00     0.070 A 
HETATM   34  C30 UNL     1      -0.956   2.539   0.200  1.00  0.00     0.018 A 
HETATM   35  C27 UNL     1      -0.747   4.686  -1.447  1.00  0.00     0.006 A 
HETATM   36  C28 UNL     1      -0.147   3.502  -1.805  1.00  0.00     0.000 A 
HETATM   37  C29 UNL     1      -0.257   2.437  -0.978  1.00  0.00     0.001 A 
BRANCH  33  38
HETATM   38  C31 UNL     1      -2.065   6.144   0.031  1.00  0.00     0.268 C 
HETATM   39  N3  UNL     1      -1.882   7.249  -0.821  1.00  0.00    -0.057 NA
HETATM   40  O3  UNL     1      -2.747   6.266   1.068  1.00  0.00    -0.271 OA
ENDBRANCH  33  38
ENDBRANCH   1  29
TORSDOF 12
