REMARK  6 active torsions:
REMARK  status: ('A' for Active; 'I' for Inactive)
REMARK    1  A    between atoms: C6_7  and  C7_8 
REMARK    2  A    between atoms: C9_11  and  N2_14 
REMARK    3  A    between atoms: C13_18  and  N4_19 
REMARK    4  A    between atoms: N4_19  and  C14_20 
REMARK    5  A    between atoms: C14_20  and  C15_21 
REMARK    6  A    between atoms: C15_21  and  N5_22 
ROOT
HETATM    1  C7  UNL     1      -2.030   2.444   0.470  1.00  0.00     0.130 C 
HETATM    2  C8  UNL     1      -2.745   3.696   0.457  1.00  0.00     0.078 C 
HETATM    3  N1  UNL     1      -3.307   4.704   0.460  1.00  0.00    -0.196 NA
ENDROOT
BRANCH   1   4
HETATM    4  C6  UNL     1      -2.833   1.329  -0.148  1.00  0.00     0.001 C 
HETATM    5  C5  UNL     1      -4.038   1.683  -0.592  1.00  0.00     0.037 C 
HETATM    6  C4  UNL     1      -5.049   0.850  -1.234  1.00  0.00     0.195 C 
HETATM    7  C3  UNL     1      -5.041  -0.622  -1.361  1.00  0.00     0.040 C 
HETATM    8  O1  UNL     1      -6.053   1.430  -1.745  1.00  0.00    -0.287 OA
HETATM    9  C2  UNL     1      -4.185  -1.430  -0.713  1.00  0.00     0.005 C 
HETATM   10  C1  UNL     1      -4.386  -2.870  -1.014  1.00  0.00     0.033 C 
HETATM   11  C10 UNL     1      -3.099  -1.129   0.231  1.00  0.00     0.129 C 
HETATM   12  C9  UNL     1      -2.229  -0.004  -0.202  1.00  0.00     0.156 C 
HETATM   13  O2  UNL     1      -3.459  -1.129   1.553  1.00  0.00    -0.193 OA
BRANCH  12  14
HETATM   14  N2  UNL     1      -0.916  -0.040   0.352  1.00  0.00    -0.287 N 
HETATM   15  C11 UNL     1      -0.394   0.740   1.322  1.00  0.00     0.180 A 
HETATM   16  N3  UNL     1       0.882   0.396   1.570  1.00  0.00    -0.221 NA
HETATM   17  C12 UNL     1       1.214  -0.621   0.759  1.00  0.00     0.134 A 
HETATM   18  C13 UNL     1       2.389  -1.324   0.622  1.00  0.00     0.098 A 
HETATM   19  C22 UNL     1       0.085  -0.879   0.009  1.00  0.00     0.165 A 
HETATM   20  C20 UNL     1       2.415  -2.332  -0.320  1.00  0.00     0.041 A 
HETATM   21  C21 UNL     1       1.277  -2.579  -1.063  1.00  0.00     0.102 A 
HETATM   22  N6  UNL     1       0.157  -1.871  -0.896  1.00  0.00    -0.225 NA
BRANCH  18  23
HETATM   23  N4  UNL     1       3.553  -1.026   1.423  1.00  0.00    -0.267 NA
BRANCH  23  24
HETATM   24  C14 UNL     1       4.741  -1.820   1.213  1.00  0.00     0.161 C 
BRANCH  24  25
HETATM   25  C15 UNL     1       5.214  -1.692  -0.210  1.00  0.00     0.276 C 
BRANCH  25  26
HETATM   26  N5  UNL     1       5.545  -0.358  -0.600  1.00  0.00     0.139 N 
HETATM   27  C16 UNL     1       4.455   0.557  -0.692  1.00  0.00     0.250 C 
HETATM   28  C17 UNL     1       4.899   1.891  -0.129  1.00  0.00     0.037 C 
HETATM   29  C18 UNL     1       6.381   1.751   0.077  1.00  0.00     0.037 C 
HETATM   30  C19 UNL     1       6.557   0.256   0.237  1.00  0.00     0.250 C 
ENDBRANCH  25  26
ENDBRANCH  24  25
ENDBRANCH  23  24
ENDBRANCH  18  23
ENDBRANCH  12  14
ENDBRANCH   1   4
TORSDOF 6
