REMARK  5 active torsions:
REMARK  status: ('A' for Active; 'I' for Inactive)
REMARK    1  A    between atoms: C4_5  and  C5_6 
REMARK    2  A    between atoms: C5_6  and  N1_7 
REMARK    3  A    between atoms: N1_7  and  C6_8 
REMARK    4  A    between atoms: C6_8  and  C7_9 
REMARK    5  A    between atoms: C9_12  and  C11_15 
ROOT
HETATM    1  C11 UNL     1      -3.411   0.414  -0.497  1.00  0.00     0.036 A 
HETATM    2  C12 UNL     1      -4.082  -0.378  -1.375  1.00  0.00     0.004 A 
HETATM    3  C13 UNL     1      -5.469  -0.400  -1.391  1.00  0.00     0.010 A 
HETATM    4  C14 UNL     1      -6.149   0.412  -0.470  1.00  0.00     0.068 A 
HETATM    5  C15 UNL     1      -5.452   1.180   0.368  1.00  0.00     0.010 A 
HETATM    6  C16 UNL     1      -4.063   1.232   0.413  1.00  0.00     0.004 A 
HETATM    7  C17 UNL     1      -7.605   0.330  -0.471  1.00  0.00     0.101 C 
HETATM    8  N4  UNL     1      -8.743   0.246  -0.441  1.00  0.00    -0.191 NA
ENDROOT
BRANCH   1   9
HETATM    9  C9  UNL     1      -1.956   0.309  -0.320  1.00  0.00     0.162 A 
HETATM   10  N2  UNL     1      -1.339   1.210   0.472  1.00  0.00    -0.226 NA
HETATM   11  C8  UNL     1      -0.048   1.156   0.784  1.00  0.00     0.100 A 
HETATM   12  C7  UNL     1       0.710   0.108   0.266  1.00  0.00     0.052 A 
HETATM   13  C10 UNL     1       0.103  -0.804  -0.529  1.00  0.00     0.100 A 
HETATM   14  N3  UNL     1      -1.243  -0.699  -0.821  1.00  0.00    -0.226 NA
BRANCH  12  15
HETATM   15  C6  UNL     1       2.195   0.142   0.518  1.00  0.00     0.320 C 
BRANCH  15  16
HETATM   16  N1  UNL     1       2.362   1.116   1.645  1.00  0.00     0.349 N 
BRANCH  16  17
HETATM   17  C5  UNL     1       3.488   1.917   1.039  1.00  0.00     0.317 C 
BRANCH  17  18
HETATM   18  C4  UNL     1       4.567   0.990   0.649  1.00  0.00     0.014 A 
HETATM   19  C3  UNL     1       5.778   0.882   1.326  1.00  0.00     0.000 A 
HETATM   20  C2  UNL     1       6.722  -0.050   0.900  1.00  0.00     0.029 A 
HETATM   21  C1  UNL     1       6.524  -0.879  -0.174  1.00  0.00     0.140 A 
HETATM   22  F1  UNL     1       7.427  -1.812  -0.592  1.00  0.00    -0.204 F 
HETATM   23  C19 UNL     1       5.308  -0.776  -0.868  1.00  0.00     0.029 A 
HETATM   24  C18 UNL     1       4.375   0.149  -0.430  1.00  0.00     0.000 A 
ENDBRANCH  17  18
ENDBRANCH  16  17
ENDBRANCH  15  16
ENDBRANCH  12  15
ENDBRANCH   1   9
TORSDOF 5
