REMARK  7 active torsions:
REMARK  status: ('A' for Active; 'I' for Inactive)
REMARK    1  A    between atoms: C8_8  and  N1_9 
REMARK       I    between atoms: N1_9  and  C9_10 
REMARK    2  A    between atoms: C9_10  and  C10_12 
REMARK    3  A    between atoms: C10_12  and  N2_13 
REMARK    4  A    between atoms: C12_15  and  C13_16 
REMARK    5  A    between atoms: C13_16  and  N3_17 
REMARK    6  A    between atoms: C17_22  and  S1_23 
REMARK    7  A    between atoms: S1_23  and  C18_26 
ROOT
HETATM    1  N2  UNL     1      -1.259   0.336  -0.355  1.00  0.00    -0.318 N 
HETATM    2  C11 UNL     1      -0.030   0.518  -0.782  1.00  0.00     0.077 A 
HETATM    3  C12 UNL     1       0.839  -0.450  -0.247  1.00  0.00     0.030 A 
HETATM    4  C24 UNL     1       0.010  -1.250   0.569  1.00  0.00     0.018 A 
HETATM    5  C25 UNL     1       0.274  -2.266   1.434  1.00  0.00     0.002 A 
HETATM    6  C26 UNL     1      -0.730  -2.772   2.242  1.00  0.00     0.000 A 
HETATM    7  C27 UNL     1      -1.987  -2.242   2.151  1.00  0.00     0.002 A 
HETATM    8  C28 UNL     1      -2.293  -1.206   1.264  1.00  0.00     0.017 A 
HETATM    9  C29 UNL     1      -1.232  -0.739   0.478  1.00  0.00     0.060 A 
ENDROOT
BRANCH   3  10
HETATM   10  C13 UNL     1       2.185  -0.876  -0.533  1.00  0.00     0.049 C 
BRANCH  10  11
HETATM   11  N3  UNL     1       3.300  -0.256   0.012  1.00  0.00    -0.235 NA
HETATM   12  C14 UNL     1       3.688  -1.079   1.231  1.00  0.00     0.110 C 
HETATM   13  C15 UNL     1       3.326  -0.504   2.500  1.00  0.00     0.160 C 
HETATM   14  O2  UNL     1       2.352   0.458   2.442  1.00  0.00    -0.350 OA
HETATM   15  C16 UNL     1       2.985   1.518   1.743  1.00  0.00     0.175 C 
HETATM   16  C17 UNL     1       3.316   1.097   0.396  1.00  0.00     0.204 C 
BRANCH  16  17
HETATM   17  S1  UNL     1       4.559   2.012  -0.475  1.00  0.00     0.206 S 
HETATM   18  O3  UNL     1       4.771   3.317   0.318  1.00  0.00    -0.220 OA
HETATM   19  O4  UNL     1       4.207   2.376  -1.851  1.00  0.00    -0.220 OA
BRANCH  17  20
HETATM   20  C18 UNL     1       6.057   1.081  -0.317  1.00  0.00     0.085 A 
HETATM   21  C19 UNL     1       5.952  -0.319  -0.316  1.00  0.00     0.011 A 
HETATM   22  C20 UNL     1       7.144  -1.087  -0.280  1.00  0.00     0.001 A 
HETATM   23  C21 UNL     1       8.321  -0.445  -0.263  1.00  0.00     0.000 A 
HETATM   24  C22 UNL     1       8.390   0.942  -0.265  1.00  0.00     0.001 A 
HETATM   25  C23 UNL     1       7.244   1.722  -0.283  1.00  0.00     0.011 A 
ENDBRANCH  17  20
ENDBRANCH  16  17
ENDBRANCH  10  11
ENDBRANCH   3  10
BRANCH   1  26
HETATM   26  C10 UNL     1      -2.442   0.867  -0.975  1.00  0.00     0.197 C 
BRANCH  26  27
HETATM   27  C9  UNL     1      -3.642   0.875  -0.086  1.00  0.00     0.279 C 
HETATM   28  N1  UNL     1      -4.779   0.222  -0.600  1.00  0.00    -0.211 NA
HETATM   29  O1  UNL     1      -3.723   1.385   1.004  1.00  0.00    -0.268 OA
BRANCH  28  30
HETATM   30  C8  UNL     1      -6.038  -0.116  -0.445  1.00  0.00     0.076 A 
HETATM   31  C2  UNL     1      -6.523  -1.093   0.422  1.00  0.00    -0.004 A 
HETATM   32  C1  UNL     1      -5.613  -1.752   1.361  1.00  0.00     0.033 C 
HETATM   33  C3  UNL     1      -7.889  -1.449   0.420  1.00  0.00    -0.003 A 
HETATM   34  C4  UNL     1      -8.781  -0.869  -0.414  1.00  0.00    -0.001 A 
HETATM   35  C5  UNL     1      -8.345   0.104  -1.288  1.00  0.00    -0.003 A 
HETATM   36  C6  UNL     1      -7.057   0.454  -1.290  1.00  0.00    -0.004 A 
HETATM   37  C7  UNL     1      -6.557   1.489  -2.263  1.00  0.00     0.033 C 
ENDBRANCH  28  30
ENDBRANCH  26  27
ENDBRANCH   1  26
TORSDOF 7
