REMARK  2 active torsions:
REMARK  status: ('A' for Active; 'I' for Inactive)
REMARK    1  A    between atoms: O1_2  and  C2_3 
REMARK    2  A    between atoms: C5_6  and  N1_9 
ROOT
HETATM    1  C2  UNL     1       3.121  -0.028   0.356  1.00  0.00     0.094 A 
HETATM    2  C3  UNL     1       2.515  -0.396  -0.813  1.00  0.00     0.026 A 
HETATM    3  C4  UNL     1       1.158  -0.285  -0.976  1.00  0.00     0.021 A 
HETATM    4  C5  UNL     1       0.343   0.199   0.023  1.00  0.00     0.079 A 
HETATM    5  C6  UNL     1       0.967   0.573   1.211  1.00  0.00     0.021 A 
HETATM    6  C7  UNL     1       2.329   0.460   1.371  1.00  0.00     0.026 A 
ENDROOT
BRANCH   4   7
HETATM    7  N1  UNL     1      -1.051   0.330  -0.100  1.00  0.00    -0.238 N 
HETATM    8  C8  UNL     1      -1.942   0.874  -1.073  1.00  0.00     0.267 C 
HETATM    9  O2  UNL     1      -1.841   1.931  -1.762  1.00  0.00    -0.269 OA
HETATM   10  C9  UNL     1      -2.720  -0.276  -0.760  1.00  0.00     0.159 C 
HETATM   11  C10 UNL     1      -4.125  -0.281  -0.341  1.00  0.00     0.029 C 
HETATM   12  N2  UNL     1      -2.153   0.028   0.592  1.00  0.00    -0.184 NA
HETATM   13  C11 UNL     1      -3.998  -1.217   0.886  1.00  0.00     0.021 C 
HETATM   14  C12 UNL     1      -2.479  -1.200   1.187  1.00  0.00     0.095 C 
ENDBRANCH   4   7
BRANCH   1  15
HETATM   15  O1  UNL     1       4.481  -0.115   0.583  1.00  0.00    -0.328 OA
HETATM   16  C1  UNL     1       5.393  -0.599  -0.384  1.00  0.00     0.181 C 
ENDBRANCH   1  15
TORSDOF 2
