REMARK  2 active torsions:
REMARK  status: ('A' for Active; 'I' for Inactive)
REMARK    1  A    between atoms: C2_2  and  C3_3 
REMARK    2  A    between atoms: C3_3  and  N1_4 
ROOT
HETATM    1  N1  UNL     1       0.293   0.499   0.048  1.00  0.00     0.147 N 
HETATM    2  C4  UNL     1      -0.566   1.466  -0.559  1.00  0.00     0.283 C 
HETATM    3  C5  UNL     1      -2.029   1.151  -0.429  1.00  0.00     0.178 C 
HETATM    4  O1  UNL     1      -2.332  -0.159  -0.764  1.00  0.00    -0.350 OA
HETATM    5  C6  UNL     1      -1.594  -1.081  -0.081  1.00  0.00     0.178 C 
HETATM    6  C7  UNL     1      -0.138  -0.849  -0.025  1.00  0.00     0.283 C 
ENDROOT
BRANCH   1   7
HETATM    7  C3  UNL     1       1.593   0.590  -0.617  1.00  0.00     0.277 C 
BRANCH   7   8
HETATM    8  C2  UNL     1       2.536  -0.391  -0.034  1.00  0.00     0.009 C 
HETATM    9  C1  UNL     1       2.235  -1.225   0.948  1.00  0.00    -0.003 C 
ENDBRANCH   7   8
ENDBRANCH   1   7
TORSDOF 2
