REMARK  7 active torsions:
REMARK  status: ('A' for Active; 'I' for Inactive)
REMARK    1  A    between atoms: O1_2  and  C2_3 
REMARK    2  A    between atoms: C4_5  and  O2_6 
REMARK    3  A    between atoms: C8_10  and  C9_11 
REMARK    4  A    between atoms: C9_11  and  C10_12 
REMARK    5  A    between atoms: C10_12  and  C11_13 
REMARK    6  A    between atoms: C11_13  and  N1_14 
REMARK       I    between atoms: C12_15  and  N3_17 
REMARK    7  A    between atoms: N3_17  and  C13_18 
ROOT
HETATM    1  C10 UNL     1      -0.159   1.758  -0.528  1.00  0.00     0.031 C 
ENDROOT
BRANCH   1   2
HETATM    2  C9  UNL     1      -1.487   2.335  -0.089  1.00  0.00     0.030 C 
BRANCH   2   3
HETATM    3  C8  UNL     1      -2.456   1.220   0.047  1.00  0.00     0.000 A 
HETATM    4  C2  UNL     1      -3.031   0.619  -1.040  1.00  0.00     0.092 A 
HETATM    5  C3  UNL     1      -3.920  -0.403  -0.846  1.00  0.00     0.048 A 
HETATM    6  C4  UNL     1      -4.229  -0.819   0.425  1.00  0.00     0.096 A 
HETATM    7  C6  UNL     1      -3.649  -0.212   1.497  1.00  0.00     0.024 A 
HETATM    8  C7  UNL     1      -2.760   0.809   1.327  1.00  0.00    -0.000 A 
BRANCH   4   9
HETATM    9  O1  UNL     1      -2.670   1.093  -2.295  1.00  0.00    -0.328 OA
HETATM   10  C1  UNL     1      -3.285   0.451  -3.421  1.00  0.00     0.181 C 
ENDBRANCH   4   9
BRANCH   6  11
HETATM   11  O2  UNL     1      -5.126  -1.853   0.680  1.00  0.00    -0.328 OA
HETATM   12  C5  UNL     1      -5.766  -2.529  -0.382  1.00  0.00     0.181 C 
ENDBRANCH   6  11
ENDBRANCH   2   3
ENDBRANCH   1   2
BRANCH   1  13
HETATM   13  C11 UNL     1       0.309   0.776   0.522  1.00  0.00     0.129 C 
BRANCH  13  14
HETATM   14  N1  UNL     1       1.579   0.176   0.185  1.00  0.00    -0.241 NA
HETATM   15  C12 UNL     1       1.799  -1.038   0.538  1.00  0.00     0.233 C 
HETATM   16  N2  UNL     1       0.806  -1.788   1.253  1.00  0.00    -0.060 NA
HETATM   17  N3  UNL     1       3.058  -1.611   0.196  1.00  0.00    -0.215 NA
BRANCH  17  18
HETATM   18  C13 UNL     1       4.112  -0.716  -0.154  1.00  0.00     0.084 A 
HETATM   19  C14 UNL     1       5.378  -1.168  -0.490  1.00  0.00     0.019 A 
HETATM   20  C15 UNL     1       6.417  -0.331  -0.831  1.00  0.00     0.002 A 
HETATM   21  C16 UNL     1       6.198   1.042  -0.844  1.00  0.00     0.000 A 
HETATM   22  C17 UNL     1       4.950   1.529  -0.515  1.00  0.00     0.002 A 
HETATM   23  C18 UNL     1       3.931   0.661  -0.177  1.00  0.00     0.019 A 
ENDBRANCH  17  18
ENDBRANCH  13  14
ENDBRANCH   1  13
TORSDOF 7
