REMARK  6 active torsions:
REMARK  status: ('A' for Active; 'I' for Inactive)
REMARK    1  A    between atoms: C2_2  and  O2_4 
REMARK    2  A    between atoms: O2_4  and  C3_5 
REMARK    3  A    between atoms: C5_7  and  O3_8 
REMARK    4  A    between atoms: O3_8  and  C6_9 
REMARK    5  A    between atoms: C8_12  and  C9_14 
REMARK    6  A    between atoms: C9_14  and  C10_16 
ROOT
HETATM    1  C3  UNL     1       0.953  -0.047   0.710  1.00  0.00     0.164 C 
HETATM    2  C4  UNL     1      -0.256  -0.840   0.995  1.00  0.00     0.067 C 
HETATM    3  C5  UNL     1      -0.505  -0.965  -0.540  1.00  0.00     0.164 C 
HETATM    4  C8  UNL     1       0.257   0.341  -0.687  1.00  0.00     0.230 C 
HETATM    5  O5  UNL     1       1.279   0.342  -1.578  1.00  0.00    -0.213 OA
ENDROOT
BRANCH   4   6
HETATM    6  C9  UNL     1      -0.401   1.605  -0.358  1.00  0.00     0.216 C 
HETATM    7  O6  UNL     1       0.229   2.578  -0.393  1.00  0.00    -0.290 OA
BRANCH   6   8
HETATM    8  C10 UNL     1      -1.840   1.679   0.019  1.00  0.00     0.249 C 
HETATM    9  O7  UNL     1      -2.107   3.058   0.326  1.00  0.00    -0.212 OA
ENDBRANCH   6   8
ENDBRANCH   4   6
BRANCH   1  10
HETATM   10  O2  UNL     1       2.128  -0.825   0.492  1.00  0.00    -0.301 OA
BRANCH  10  11
HETATM   11  C2  UNL     1       3.304  -0.017   0.313  1.00  0.00     0.272 C 
HETATM   12  C1  UNL     1       4.565  -0.617   0.108  1.00  0.00     0.106 C 
HETATM   13  O1  UNL     1       3.203   1.272   0.337  1.00  0.00    -0.264 OA
ENDBRANCH  10  11
ENDBRANCH   1  10
BRANCH   3  14
HETATM   14  O3  UNL     1      -1.909  -0.782  -0.695  1.00  0.00    -0.301 OA
BRANCH  14  15
HETATM   15  C6  UNL     1      -2.643  -1.933  -0.349  1.00  0.00     0.272 C 
HETATM   16  C7  UNL     1      -4.181  -1.907  -0.461  1.00  0.00     0.106 C 
HETATM   17  O4  UNL     1      -2.076  -2.941   0.048  1.00  0.00    -0.264 OA
ENDBRANCH  14  15
ENDBRANCH   3  14
TORSDOF 6
