REMARK  6 active torsions:
REMARK  status: ('A' for Active; 'I' for Inactive)
REMARK    1  A    between atoms: C5_5  and  C13_19 
REMARK    2  A    between atoms: N1_7  and  C7_8 
REMARK    3  A    between atoms: C10_12  and  N3_13 
REMARK    4  A    between atoms: N3_13  and  S1_14 
REMARK    5  A    between atoms: C13_19  and  C14_21 
REMARK       I    between atoms: C14_21  and  N4_23 
REMARK    6  A    between atoms: N4_23  and  C15_24 
ROOT
HETATM    1  C1  UNL     1      -0.433  -0.103   2.329  1.00  0.00     0.024 C 
HETATM    2  C2  UNL     1      -0.947   0.685   1.137  1.00  0.00     0.082 C 
HETATM    3  C3  UNL     1      -0.132   1.904   0.911  1.00  0.00     0.027 C 
HETATM    4  C4  UNL     1       1.172   1.700   0.250  1.00  0.00     0.029 C 
HETATM    5  C5  UNL     1       1.462   0.372  -0.286  1.00  0.00     0.022 C 
HETATM    6  C6  UNL     1       0.340  -0.521  -0.594  1.00  0.00     0.127 C 
HETATM    7  N1  UNL     1      -0.920  -0.159  -0.039  1.00  0.00    -0.346 N 
ENDROOT
BRANCH   7   8
HETATM    8  C7  UNL     1      -2.167  -0.581  -0.576  1.00  0.00     0.061 A 
HETATM    9  C8  UNL     1      -2.235  -1.393  -1.705  1.00  0.00     0.038 A 
HETATM   10  C9  UNL     1      -3.473  -1.785  -2.201  1.00  0.00     0.102 A 
HETATM   11  N2  UNL     1      -4.610  -1.404  -1.623  1.00  0.00    -0.225 NA
HETATM   12  C10 UNL     1      -4.584  -0.619  -0.531  1.00  0.00     0.176 A 
HETATM   13  C12 UNL     1      -3.374  -0.216  -0.019  1.00  0.00     0.057 A 
BRANCH  12  14
HETATM   14  N3  UNL     1      -5.831  -0.247   0.039  1.00  0.00    -0.142 NA
BRANCH  14  15
HETATM   15  S1  UNL     1      -7.327  -0.751  -0.602  1.00  0.00     0.267 S 
HETATM   16  C11 UNL     1      -7.513  -0.140  -2.256  1.00  0.00     0.165 C 
HETATM   17  O1  UNL     1      -7.423  -2.259  -0.578  1.00  0.00    -0.203 OA
HETATM   18  O2  UNL     1      -8.451  -0.235   0.248  1.00  0.00    -0.203 OA
ENDBRANCH  14  15
ENDBRANCH  12  14
ENDBRANCH   7   8
BRANCH   5  19
HETATM   19  C13 UNL     1       2.691  -0.270   0.187  1.00  0.00     0.247 C 
HETATM   20  O3  UNL     1       2.721  -1.368   0.797  1.00  0.00    -0.282 OA
BRANCH  19  21
HETATM   21  C14 UNL     1       3.957   0.401  -0.063  1.00  0.00     0.319 C 
HETATM   22  O4  UNL     1       4.023   1.516  -0.673  1.00  0.00    -0.262 OA
HETATM   23  N4  UNL     1       5.178  -0.152   0.360  1.00  0.00    -0.180 NA
BRANCH  23  24
HETATM   24  C15 UNL     1       6.428   0.532   0.101  1.00  0.00     0.197 A 
HETATM   25  N5  UNL     1       7.652   0.142   0.434  1.00  0.00    -0.219 NA
HETATM   26  C16 UNL     1       8.656   0.885   0.119  1.00  0.00     0.108 A 
HETATM   27  C17 UNL     1       8.421   2.053  -0.549  1.00  0.00     0.059 A 
HETATM   28  S2  UNL     1       6.719   2.013  -0.690  1.00  0.00    -0.046 SA
ENDBRANCH  23  24
ENDBRANCH  19  21
ENDBRANCH   5  19
TORSDOF 6
