REMARK  7 active torsions:
REMARK  status: ('A' for Active; 'I' for Inactive)
REMARK    1  A    between atoms: C5_5  and  C8_8 
REMARK    2  A    between atoms: C10_10  and  C22_25 
REMARK    3  A    between atoms: C12_12  and  O1_13 
REMARK    4  A    between atoms: O1_13  and  C13_14 
REMARK    5  A    between atoms: C18_19  and  C19_20 
REMARK    6  A    between atoms: C20_21  and  C21_22 
REMARK       I    between atoms: C22_25  and  N2_27 
REMARK    7  A    between atoms: N2_27  and  C23_28 
ROOT
HETATM    1  C8  UNL     1      -1.440   0.953  -0.079  1.00  0.00     0.084 A 
HETATM    2  C9  UNL     1      -2.004  -0.247   0.271  1.00  0.00     0.024 A 
HETATM    3  C10 UNL     1      -1.239  -1.342   0.662  1.00  0.00     0.063 A 
HETATM    4  C11 UNL     1       0.125  -1.153   0.679  1.00  0.00     0.050 A 
HETATM    5  C12 UNL     1       0.705   0.048   0.330  1.00  0.00     0.182 A 
HETATM    6  N1  UNL     1      -0.104   1.071  -0.041  1.00  0.00    -0.222 NA
ENDROOT
BRANCH   5   7
HETATM    7  O1  UNL     1       2.060   0.286   0.331  1.00  0.00    -0.289 OA
BRANCH   7   8
HETATM    8  C13 UNL     1       2.900  -0.026  -0.720  1.00  0.00     0.102 A 
HETATM    9  C14 UNL     1       2.453  -0.615  -1.884  1.00  0.00     0.025 A 
HETATM   10  C15 UNL     1       3.337  -0.905  -2.900  1.00  0.00     0.002 A 
HETATM   11  C16 UNL     1       4.689  -0.626  -2.806  1.00  0.00     0.000 A 
HETATM   12  C17 UNL     1       5.135  -0.037  -1.642  1.00  0.00     0.002 A 
HETATM   13  C18 UNL     1       4.246   0.258  -0.610  1.00  0.00     0.023 A 
BRANCH  13  14
HETATM   14  C19 UNL     1       4.719   0.887   0.638  1.00  0.00    -0.000 C 
HETATM   15  C20 UNL     1       6.006   1.162   0.743  1.00  0.00     0.009 C 
BRANCH  15  16
HETATM   16  C21 UNL     1       6.565   1.785   1.942  1.00  0.00     0.209 C 
HETATM   17  O2  UNL     1       7.531   0.960   2.523  1.00  0.00    -0.215 OA
ENDBRANCH  15  16
ENDBRANCH  13  14
ENDBRANCH   7   8
ENDBRANCH   5   7
BRANCH   3  18
HETATM   18  C22 UNL     1      -1.845  -2.614   1.032  1.00  0.00     0.275 C 
HETATM   19  O3  UNL     1      -1.073  -3.545   1.376  1.00  0.00    -0.266 OA
HETATM   20  N2  UNL     1      -3.225  -2.858   1.028  1.00  0.00    -0.238 NA
BRANCH  20  21
HETATM   21  C23 UNL     1      -3.853  -4.097   1.386  1.00  0.00     0.088 C 
HETATM   22  C24 UNL     1      -5.352  -3.930   1.244  1.00  0.00     0.025 C 
HETATM   23  C25 UNL     1      -3.419  -5.258   0.554  1.00  0.00     0.025 C 
HETATM   24  C26 UNL     1      -3.608  -4.450   2.857  1.00  0.00     0.025 C 
ENDBRANCH  20  21
ENDBRANCH   3  18
BRANCH   1  25
HETATM   25  C5  UNL     1      -2.263   2.109  -0.494  1.00  0.00     0.018 A 
HETATM   26  C4  UNL     1      -3.634   1.983  -0.532  1.00  0.00     0.001 A 
HETATM   27  C3  UNL     1      -4.480   3.005  -0.906  1.00  0.00    -0.004 A 
HETATM   28  C2  UNL     1      -3.896   4.215  -1.257  1.00  0.00    -0.022 A 
HETATM   29  C1  UNL     1      -4.809   5.315  -1.659  1.00  0.00     0.031 C 
HETATM   30  C7  UNL     1      -2.525   4.362  -1.225  1.00  0.00    -0.004 A 
HETATM   31  C6  UNL     1      -1.702   3.303  -0.841  1.00  0.00     0.001 A 
ENDBRANCH   1  25
TORSDOF 7
