REMARK  8 active torsions:
REMARK  status: ('A' for Active; 'I' for Inactive)
REMARK    1  A    between atoms: S1_2  and  O3_5 
REMARK    2  A    between atoms: O3_5  and  C2_6 
REMARK    3  A    between atoms: C2_6  and  C3_7 
REMARK    4  A    between atoms: C3_7  and  C4_8 
REMARK    5  A    between atoms: C3_7  and  C6_11 
REMARK    6  A    between atoms: C4_8  and  C5_9 
REMARK    7  A    between atoms: C9_14  and  S2_17 
REMARK    8  A    between atoms: S2_17  and  N1_20 
ROOT
HETATM    1  C6  UNL     1       1.419   0.348   0.736  1.00  0.00    -0.005 A 
HETATM    2  C7  UNL     1       0.416   0.962   1.524  1.00  0.00     0.000 A 
HETATM    3  C8  UNL     1      -0.936   0.724   1.282  1.00  0.00     0.013 A 
HETATM    4  C9  UNL     1      -1.359  -0.144   0.295  1.00  0.00     0.103 A 
HETATM    5  C10 UNL     1      -0.338  -0.751  -0.466  1.00  0.00     0.013 A 
HETATM    6  C11 UNL     1       0.993  -0.516  -0.270  1.00  0.00     0.000 A 
ENDROOT
BRANCH   1   7
HETATM    7  C3  UNL     1       2.839   0.582   1.097  1.00  0.00    -0.011 C 
BRANCH   7   8
HETATM    8  C2  UNL     1       3.803   1.069   0.224  1.00  0.00     0.185 C 
BRANCH   8   9
HETATM    9  O3  UNL     1       3.687   0.245  -0.983  1.00  0.00    -0.251 OA
BRANCH   9  10
HETATM   10  S1  UNL     1       5.303  -0.465  -0.923  1.00  0.00     0.281 S 
HETATM   11  C1  UNL     1       6.164  -0.469  -2.401  1.00  0.00     0.171 C 
HETATM   12  O1  UNL     1       4.985  -1.907  -0.443  1.00  0.00    -0.198 OA
HETATM   13  O2  UNL     1       6.008   0.160   0.245  1.00  0.00    -0.198 OA
ENDBRANCH   9  10
ENDBRANCH   8   9
ENDBRANCH   7   8
BRANCH   7  14
HETATM   14  C4  UNL     1       2.831   1.184   2.548  1.00  0.00     0.060 C 
BRANCH  14  15
HETATM   15  C5  UNL     1       1.755   0.215   3.217  1.00  0.00     0.187 C 
HETATM   16  O4  UNL     1       2.345  -1.094   3.064  1.00  0.00    -0.220 OA
ENDBRANCH  14  15
ENDBRANCH   7  14
ENDBRANCH   1   7
BRANCH   4  17
HETATM   17  S2  UNL     1      -3.004  -0.630   0.148  1.00  0.00     0.264 S 
HETATM   18  O5  UNL     1      -3.635  -0.406   1.562  1.00  0.00    -0.200 OA
HETATM   19  O6  UNL     1      -3.097  -2.135  -0.172  1.00  0.00    -0.200 OA
BRANCH  17  20
HETATM   20  N1  UNL     1      -3.807   0.270  -1.018  1.00  0.00    -0.269 N 
HETATM   21  C12 UNL     1      -4.875   1.130  -0.597  1.00  0.00     0.145 C 
HETATM   22  C13 UNL     1      -6.215   0.703  -1.165  1.00  0.00     0.167 C 
HETATM   23  O7  UNL     1      -6.140   0.367  -2.494  1.00  0.00    -0.350 OA
HETATM   24  C14 UNL     1      -5.278  -0.706  -2.667  1.00  0.00     0.167 C 
HETATM   25  C15 UNL     1      -3.865  -0.216  -2.343  1.00  0.00     0.145 C 
ENDBRANCH  17  20
ENDBRANCH   4  17
TORSDOF 8
