REMARK  6 active torsions:
REMARK  status: ('A' for Active; 'I' for Inactive)
REMARK       I    between atoms: C1_2  and  N3_4 
REMARK    1  A    between atoms: N3_4  and  C2_5 
REMARK    2  A    between atoms: C6_11  and  C7_12 
REMARK    3  A    between atoms: C7_12  and  C8_13 
REMARK    4  A    between atoms: C11_16  and  N5_19 
REMARK    5  A    between atoms: C19_27  and  O4_28 
REMARK    6  A    between atoms: C21_30  and  O5_31 
ROOT
HETATM    1  C2  UNL     1      -4.201   0.601  -0.471  1.00  0.00     0.108 A 
HETATM    2  C3  UNL     1      -3.013   0.435  -1.144  1.00  0.00     0.026 A 
HETATM    3  C4  UNL     1      -1.942  -0.252  -0.559  1.00  0.00     0.064 A 
HETATM    4  C5  UNL     1      -0.693  -0.417  -1.280  1.00  0.00     0.275 C 
HETATM    5  O1  UNL     1      -0.540   0.046  -2.440  1.00  0.00    -0.266 OA
HETATM    6  N4  UNL     1       0.385  -1.114  -0.674  1.00  0.00    -0.228 NA
HETATM    7  C6  UNL     1       0.406  -1.379   0.766  1.00  0.00     0.172 C 
HETATM    8  C17 UNL     1      -0.957  -1.489   1.313  1.00  0.00     0.198 C 
HETATM    9  O3  UNL     1      -1.166  -2.203   2.314  1.00  0.00    -0.289 OA
HETATM   10  C18 UNL     1      -2.053  -0.778   0.704  1.00  0.00     0.066 A 
HETATM   11  C19 UNL     1      -3.266  -0.603   1.376  1.00  0.00     0.121 A 
HETATM   12  C21 UNL     1      -4.301   0.069   0.794  1.00  0.00     0.134 A 
ENDROOT
BRANCH   7  13
HETATM   13  C7  UNL     1       1.110  -0.247   1.482  1.00  0.00     0.059 C 
BRANCH  13  14
HETATM   14  C8  UNL     1       2.495  -0.168   0.957  1.00  0.00    -0.020 A 
HETATM   15  C9  UNL     1       3.492  -0.897   1.565  1.00  0.00    -0.003 A 
HETATM   16  C10 UNL     1       4.785  -0.813   1.063  1.00  0.00     0.019 A 
HETATM   17  C11 UNL     1       5.065  -0.016  -0.024  1.00  0.00     0.082 A 
HETATM   18  C12 UNL     1       4.030   0.690  -0.593  1.00  0.00     0.019 A 
HETATM   19  C13 UNL     1       2.730   0.642  -0.133  1.00  0.00    -0.003 A 
BRANCH  17  20
HETATM   20  N5  UNL     1       6.348   0.103  -0.568  1.00  0.00    -0.239 N 
HETATM   21  C14 UNL     1       6.733   0.903  -1.692  1.00  0.00     0.135 C 
HETATM   22  C15 UNL     1       8.100   1.428  -1.234  1.00  0.00     0.062 C 
HETATM   23  C16 UNL     1       8.374   0.531  -0.035  1.00  0.00     0.176 C 
HETATM   24  O2  UNL     1       7.449  -0.518  -0.126  1.00  0.00    -0.258 OA
ENDBRANCH  17  20
ENDBRANCH  13  14
ENDBRANCH   7  13
BRANCH  11  25
HETATM   25  O4  UNL     1      -3.392  -1.132   2.657  1.00  0.00    -0.326 OA
HETATM   26  C20 UNL     1      -3.869  -2.451   2.875  1.00  0.00     0.181 C 
ENDBRANCH  11  25
BRANCH  12  27
HETATM   27  O5  UNL     1      -5.524   0.251   1.462  1.00  0.00    -0.325 OA
HETATM   28  C22 UNL     1      -5.765   1.374   2.278  1.00  0.00     0.182 C 
ENDBRANCH  12  27
BRANCH   1  29
HETATM   29  N3  UNL     1      -5.309   1.307  -1.067  1.00  0.00    -0.211 NA
HETATM   30  C1  UNL     1      -5.204   1.850  -2.360  1.00  0.00     0.257 C 
HETATM   31  N1  UNL     1      -6.103   2.783  -2.923  1.00  0.00    -0.058 NA
HETATM   32  N2  UNL     1      -4.202   1.463  -3.093  1.00  0.00    -0.111 N 
ENDBRANCH   1  29
TORSDOF 6
