REMARK  12 active torsions:
REMARK  status: ('A' for Active; 'I' for Inactive)
REMARK    1  A    between atoms: C1_2  and  C2_3 
REMARK    2  A    between atoms: C3_5  and  O3_6 
REMARK    3  A    between atoms: O3_6  and  C4_7 
REMARK    4  A    between atoms: C4_7  and  C5_8 
REMARK    5  A    between atoms: C5_8  and  C6_9 
REMARK    6  A    between atoms: C6_9  and  C7_10 
REMARK    7  A    between atoms: C7_10  and  C8_11 
REMARK    8  A    between atoms: C8_11  and  C9_12 
REMARK    9  A    between atoms: C9_12  and  C10_13 
REMARK   10  A    between atoms: C10_13  and  C11_14 
REMARK   11  A    between atoms: C11_14  and  C12_15 
REMARK   12  A    between atoms: C12_15  and  C13_16 
ROOT
HETATM    1  O3  UNL     1      -0.845   0.443  -0.368  1.00  0.00    -0.329 OA
ENDROOT
BRANCH   1   2
HETATM    2  C3  UNL     1      -2.146  -0.107  -0.333  1.00  0.00     0.270 C 
HETATM    3  O2  UNL     1      -2.977   0.679  -1.160  1.00  0.00    -0.326 OA
HETATM    4  C2  UNL     1      -4.214  -0.008  -1.160  1.00  0.00     0.184 C 
HETATM    5  C16 UNL     1      -4.881   0.312   0.139  1.00  0.00     0.215 C 
HETATM    6  C15 UNL     1      -4.055  -0.106   1.302  1.00  0.00     0.220 C 
HETATM    7  O7  UNL     1      -5.241   1.641   0.276  1.00  0.00    -0.218 OA
HETATM    8  C14 UNL     1      -2.596  -0.152   1.075  1.00  0.00     0.241 C 
HETATM    9  O6  UNL     1      -4.513  -1.335   1.757  1.00  0.00    -0.218 OA
HETATM   10  O5  UNL     1      -1.841   0.662   1.886  1.00  0.00    -0.215 OA
BRANCH   4  11
HETATM   11  C1  UNL     1      -5.042   0.348  -2.351  1.00  0.00     0.214 C 
HETATM   12  O1  UNL     1      -4.344   0.007  -3.505  1.00  0.00    -0.218 OA
ENDBRANCH   4  11
ENDBRANCH   1   2
BRANCH   1  13
HETATM   13  C4  UNL     1      -0.426   0.400  -1.710  1.00  0.00     0.145 C 
BRANCH  13  14
HETATM   14  C5  UNL     1       0.963   0.983  -1.772  1.00  0.00     0.032 C 
BRANCH  14  15
HETATM   15  C6  UNL     1       1.924   0.190  -0.912  1.00  0.00     0.003 C 
BRANCH  15  16
HETATM   16  C7  UNL     1       1.417   0.237   0.527  1.00  0.00     0.000 C 
BRANCH  16  17
HETATM   17  C8  UNL     1       2.326  -0.533   1.448  1.00  0.00     0.000 C 
BRANCH  17  18
HETATM   18  C9  UNL     1       3.702   0.096   1.377  1.00  0.00     0.000 C 
BRANCH  18  19
HETATM   19  C10 UNL     1       4.224   0.028  -0.055  1.00  0.00     0.000 C 
BRANCH  19  20
HETATM   20  C11 UNL     1       5.595   0.673  -0.046  1.00  0.00     0.003 C 
BRANCH  20  21
HETATM   21  C12 UNL     1       6.460  -0.127   0.912  1.00  0.00     0.036 C 
BRANCH  21  22
HETATM   22  C13 UNL     1       7.838   0.541   0.905  1.00  0.00     0.182 C 
HETATM   23  O4  UNL     1       8.671  -0.156   1.770  1.00  0.00    -0.221 OA
ENDBRANCH  21  22
ENDBRANCH  20  21
ENDBRANCH  19  20
ENDBRANCH  18  19
ENDBRANCH  17  18
ENDBRANCH  16  17
ENDBRANCH  15  16
ENDBRANCH  14  15
ENDBRANCH  13  14
ENDBRANCH   1  13
TORSDOF 12
