REMARK  3 active torsions:
REMARK  status: ('A' for Active; 'I' for Inactive)
REMARK    1  A    between atoms: C4_4  and  C14_17 
REMARK       I    between atoms: N1_5  and  C5_6 
REMARK    2  A    between atoms: C7_9  and  C8_10 
REMARK    3  A    between atoms: C19_22  and  C20_23 
ROOT
HETATM    1  C1  UNL     1      -2.545  -1.335   2.482  1.00  0.00     0.028 C 
HETATM    2  C2  UNL     1      -1.450  -0.773   1.593  1.00  0.00    -0.022 C 
HETATM    3  C3  UNL     1      -0.343  -0.193   1.947  1.00  0.00    -0.006 C 
HETATM    4  C4  UNL     1       0.454   0.207   0.760  1.00  0.00     0.129 C 
HETATM    5  N1  UNL     1      -0.639   0.354  -0.219  1.00  0.00    -0.309 N 
HETATM    6  C5  UNL     1      -0.903   1.294  -1.211  1.00  0.00     0.235 C 
HETATM    7  C6  UNL     1      -0.007   2.445  -1.435  1.00  0.00     0.098 C 
HETATM    8  O1  UNL     1      -1.915   1.225  -1.973  1.00  0.00    -0.272 OA
HETATM    9  C7  UNL     1      -1.510  -0.797   0.088  1.00  0.00     0.125 C 
ENDROOT
BRANCH   4  10
HETATM   10  C14 UNL     1       1.237  -1.031   0.407  1.00  0.00     0.002 A 
HETATM   11  C15 UNL     1       0.609  -2.252   0.282  1.00  0.00    -0.002 A 
HETATM   12  C16 UNL     1       1.273  -3.411  -0.062  1.00  0.00    -0.000 A 
HETATM   13  C17 UNL     1       2.625  -3.353  -0.292  1.00  0.00    -0.000 A 
HETATM   14  C18 UNL     1       3.269  -2.156  -0.174  1.00  0.00    -0.000 A 
HETATM   15  C19 UNL     1       2.575  -0.975   0.180  1.00  0.00    -0.002 A 
BRANCH  15  16
HETATM   16  C20 UNL     1       3.307   0.272   0.320  1.00  0.00    -0.000 A 
HETATM   17  C21 UNL     1       4.527   0.296   1.014  1.00  0.00     0.001 A 
HETATM   18  C22 UNL     1       5.262   1.451   1.172  1.00  0.00     0.011 A 
HETATM   19  C23 UNL     1       4.823   2.643   0.649  1.00  0.00     0.058 A 
HETATM   20 CL2  UNL     1       5.759   4.106   0.853  1.00  0.00    -0.082 Cl
HETATM   21  C24 UNL     1       3.622   2.638  -0.037  1.00  0.00     0.011 A 
HETATM   22  C25 UNL     1       2.915   1.485  -0.180  1.00  0.00     0.001 A 
ENDBRANCH  15  16
ENDBRANCH   4  10
BRANCH   9  23
HETATM   23  C8  UNL     1      -2.928  -0.521  -0.244  1.00  0.00     0.002 A 
HETATM   24  C9  UNL     1      -3.622  -1.488  -0.942  1.00  0.00    -0.001 A 
HETATM   25  C10 UNL     1      -4.947  -1.354  -1.306  1.00  0.00     0.011 A 
HETATM   26  C11 UNL     1      -5.616  -0.207  -0.961  1.00  0.00     0.058 A 
HETATM   27 CL1  UNL     1      -7.293   0.022  -1.392  1.00  0.00    -0.082 Cl
HETATM   28  C12 UNL     1      -4.933   0.783  -0.255  1.00  0.00     0.011 A 
HETATM   29  C13 UNL     1      -3.608   0.623   0.096  1.00  0.00    -0.001 A 
ENDBRANCH   9  23
TORSDOF 3
