REMARK  13 active torsions:
REMARK  status: ('A' for Active; 'I' for Inactive)
REMARK    1  A    between atoms: O1_2  and  C2_3 
REMARK    2  A    between atoms: C5_6  and  C8_9 
REMARK    3  A    between atoms: C8_9  and  C9_10 
REMARK    4  A    between atoms: C8_9  and  C11_13 
REMARK    5  A    between atoms: C9_10  and  C10_11 
REMARK       I    between atoms: C11_13  and  N2_15 
REMARK    6  A    between atoms: N2_15  and  C12_16 
REMARK    7  A    between atoms: C12_16  and  C15_19 
REMARK       I    between atoms: C15_19  and  N3_21 
REMARK    8  A    between atoms: N3_21  and  C16_22 
REMARK    9  A    between atoms: C16_22  and  C17_23 
REMARK   10  A    between atoms: C17_23  and  C18_24 
REMARK   11  A    between atoms: C18_24  and  C19_25 
REMARK   12  A    between atoms: C19_25  and  C20_26 
REMARK   13  A    between atoms: C20_26  and  N4_27 
ROOT
HETATM    1  C12 UNL     1       0.088  -0.715  -0.704  1.00  0.00     0.160 C 
HETATM    2  C13 UNL     1      -0.182  -1.655  -1.846  1.00  0.00     0.034 C 
HETATM    3  C14 UNL     1       0.846   0.505  -1.245  1.00  0.00     0.034 C 
ENDROOT
BRANCH   1   4
HETATM    4  N2  UNL     1      -1.142  -0.212  -0.150  1.00  0.00    -0.229 NA
HETATM    5  C11 UNL     1      -2.158  -1.052   0.415  1.00  0.00     0.271 C 
HETATM    6  O2  UNL     1      -1.868  -2.289   0.379  1.00  0.00    -0.266 OA
BRANCH   5   7
HETATM    7  C8  UNL     1      -3.398  -0.520   0.972  1.00  0.00     0.037 C 
BRANCH   7   8
HETATM    8  C5  UNL     1      -4.229   0.278   0.071  1.00  0.00     0.001 A 
HETATM    9  C4  UNL     1      -4.446  -0.135  -1.227  1.00  0.00     0.002 A 
HETATM   10  C3  UNL     1      -5.223   0.594  -2.100  1.00  0.00     0.024 A 
HETATM   11  C2  UNL     1      -5.817   1.773  -1.706  1.00  0.00     0.094 A 
HETATM   12  C7  UNL     1      -5.618   2.206  -0.420  1.00  0.00     0.024 A 
HETATM   13  C6  UNL     1      -4.840   1.468   0.443  1.00  0.00     0.002 A 
BRANCH  11  14
HETATM   14  O1  UNL     1      -6.598   2.482  -2.624  1.00  0.00    -0.328 OA
HETATM   15  C1  UNL     1      -7.230   3.696  -2.270  1.00  0.00     0.181 C 
ENDBRANCH  11  14
ENDBRANCH   7   8
BRANCH   7  16
HETATM   16  C9  UNL     1      -4.187  -1.428   1.825  1.00  0.00     0.072 C 
BRANCH  16  17
HETATM   17  C10 UNL     1      -5.012  -2.396   1.038  1.00  0.00     0.343 C 
HETATM   18  N1  UNL     1      -4.286  -3.275   0.173  1.00  0.00     0.618 N 
ENDBRANCH  16  17
ENDBRANCH   7  16
ENDBRANCH   5   7
ENDBRANCH   1   4
BRANCH   1  19
HETATM   19  C15 UNL     1       0.964  -1.322   0.323  1.00  0.00     0.272 C 
HETATM   20  O3  UNL     1       0.551  -1.334   1.512  1.00  0.00    -0.269 OA
HETATM   21  N3  UNL     1       2.218  -1.877   0.023  1.00  0.00    -0.236 NA
BRANCH  21  22
HETATM   22  C16 UNL     1       3.087  -2.476   1.026  1.00  0.00     0.129 C 
BRANCH  22  23
HETATM   23  C17 UNL     1       3.454  -1.455   2.096  1.00  0.00     0.026 C 
BRANCH  23  24
HETATM   24  C18 UNL     1       4.172  -0.321   1.354  1.00  0.00     0.004 C 
BRANCH  24  25
HETATM   25  C19 UNL     1       4.588   0.761   2.303  1.00  0.00     0.035 C 
BRANCH  25  26
HETATM   26  C20 UNL     1       5.282   1.836   1.504  1.00  0.00     0.250 C 
BRANCH  26  27
HETATM   27  N4  UNL     1       6.466   1.301   0.820  1.00  0.00     0.133 N 
HETATM   28  C21 UNL     1       6.119   0.355  -0.241  1.00  0.00     0.221 C 
HETATM   29  C22 UNL     1       5.819   1.578  -1.109  1.00  0.00     0.066 C 
HETATM   30  C25 UNL     1       7.527   0.009  -0.751  1.00  0.00     0.035 C 
HETATM   31  C23 UNL     1       6.919   2.201  -0.233  1.00  0.00     0.221 C 
HETATM   32  C24 UNL     1       8.134   1.417  -0.753  1.00  0.00     0.035 C 
ENDBRANCH  26  27
ENDBRANCH  25  26
ENDBRANCH  24  25
ENDBRANCH  23  24
ENDBRANCH  22  23
ENDBRANCH  21  22
ENDBRANCH   1  19
TORSDOF 13
