REMARK  6 active torsions:
REMARK  status: ('A' for Active; 'I' for Inactive)
REMARK    1  A    between atoms: C1_2  and  C2_3 
REMARK       I    between atoms: C1_2  and  N2_14 
REMARK    2  A    between atoms: C2_3  and  S1_4 
REMARK    3  A    between atoms: S1_4  and  C3_5 
REMARK    4  A    between atoms: N3_17  and  C12_18 
REMARK    5  A    between atoms: C12_18  and  C13_19 
REMARK    6  A    between atoms: C13_19  and  C14_20 
ROOT
HETATM    1  O1  UNL     1      -1.480  -1.901  -0.714  1.00  0.00    -0.271 OA
HETATM    2  C1  UNL     1      -0.731  -0.971  -1.057  1.00  0.00     0.245 C 
HETATM    3  N2  UNL     1       0.516  -0.788  -0.462  1.00  0.00    -0.315 N 
HETATM    4  C10 UNL     1       1.010  -1.650   0.574  1.00  0.00     0.140 C 
HETATM    5  C11 UNL     1       1.507  -0.819   1.715  1.00  0.00     0.274 C 
HETATM    6  N3  UNL     1       2.157   0.393   1.380  1.00  0.00     0.141 N 
HETATM    7  C20 UNL     1       1.488   1.183   0.381  1.00  0.00     0.274 C 
HETATM    8  C21 UNL     1       1.367   0.302  -0.873  1.00  0.00     0.140 C 
ENDROOT
BRANCH   2   9
HETATM    9  C2  UNL     1      -1.154  -0.025  -2.118  1.00  0.00     0.152 C 
BRANCH   9  10
HETATM   10  S1  UNL     1      -1.939   1.400  -1.322  1.00  0.00    -0.078 SA
BRANCH  10  11
HETATM   11  C3  UNL     1      -3.497   0.832  -0.615  1.00  0.00     0.137 A 
HETATM   12  N1  UNL     1      -3.781   0.319   0.558  1.00  0.00    -0.232 NA
HETATM   13  C4  UNL     1      -5.008  -0.011   0.868  1.00  0.00     0.088 A 
HETATM   14  C5  UNL     1      -5.430  -0.565   2.094  1.00  0.00     0.020 A 
HETATM   15  C9  UNL     1      -5.976   0.203  -0.079  1.00  0.00     0.049 A 
HETATM   16  C6  UNL     1      -6.743  -0.851   2.270  1.00  0.00     0.002 A 
HETATM   17  C7  UNL     1      -7.740  -0.656   1.359  1.00  0.00     0.001 A 
HETATM   18  C8  UNL     1      -7.329  -0.108   0.140  1.00  0.00     0.008 A 
HETATM   19  S2  UNL     1      -5.061   0.864  -1.360  1.00  0.00    -0.060 SA
ENDBRANCH  10  11
ENDBRANCH   9  10
ENDBRANCH   2   9
BRANCH   6  20
HETATM   20  C12 UNL     1       3.548   0.346   1.103  1.00  0.00     0.255 C 
BRANCH  20  21
HETATM   21  C13 UNL     1       3.896  -0.377  -0.178  1.00  0.00     0.062 C 
BRANCH  21  22
HETATM   22  C14 UNL     1       5.371  -0.381  -0.393  1.00  0.00    -0.020 A 
HETATM   23  C15 UNL     1       6.158  -1.396   0.087  1.00  0.00    -0.004 A 
HETATM   24  C16 UNL     1       7.514  -1.334  -0.143  1.00  0.00    -0.000 A 
HETATM   25  C17 UNL     1       8.105  -0.297  -0.833  1.00  0.00    -0.000 A 
HETATM   26  C18 UNL     1       7.286   0.709  -1.305  1.00  0.00    -0.000 A 
HETATM   27  C19 UNL     1       5.946   0.653  -1.080  1.00  0.00    -0.004 A 
ENDBRANCH  21  22
ENDBRANCH  20  21
ENDBRANCH   6  20
TORSDOF 6
