REMARK  6 active torsions:
REMARK  status: ('A' for Active; 'I' for Inactive)
REMARK    1  A    between atoms: C1_2  and  C2_4 
REMARK    2  A    between atoms: C2_4  and  C3_5 
REMARK    3  A    between atoms: C3_5  and  C4_6 
REMARK    4  A    between atoms: C4_6  and  C5_7 
REMARK    5  A    between atoms: C5_7  and  C6_8 
REMARK    6  A    between atoms: C6_8  and  C7_9 
ROOT
HETATM    1  C4  UNL     1       0.107  -0.556   0.403  1.00  0.00     0.001 C 
ENDROOT
BRANCH   1   2
HETATM    2  C3  UNL     1       0.538  -0.072  -0.971  1.00  0.00     0.011 C 
BRANCH   2   3
HETATM    3  C2  UNL     1       1.578   0.997  -0.781  1.00  0.00     0.098 C 
BRANCH   3   4
HETATM    4  C1  UNL     1       2.754   0.468  -0.052  1.00  0.00     0.185 C 
HETATM    5  O1  UNL     1       3.851   1.230   0.257  1.00  0.00    -0.647 OA
HETATM    6  O2  UNL     1       2.752  -0.733   0.303  1.00  0.00    -0.647 OA
ENDBRANCH   3   4
ENDBRANCH   2   3
ENDBRANCH   1   2
BRANCH   1   7
HETATM    7  C5  UNL     1      -0.936  -1.628   0.205  1.00  0.00     0.011 C 
BRANCH   7   8
HETATM    8  C6  UNL     1      -2.090  -1.026  -0.537  1.00  0.00     0.098 C 
BRANCH   8   9
HETATM    9  C7  UNL     1      -2.644   0.095   0.264  1.00  0.00     0.185 C 
HETATM   10  O3  UNL     1      -3.728   0.782  -0.261  1.00  0.00    -0.647 OA
HETATM   11  O4  UNL     1      -2.182   0.443   1.383  1.00  0.00    -0.647 OA
ENDBRANCH   8   9
ENDBRANCH   7   8
ENDBRANCH   1   7
TORSDOF 6
