REMARK  5 active torsions:
REMARK  status: ('A' for Active; 'I' for Inactive)
REMARK    1  A    between atoms: O1_2  and  C2_3 
REMARK    2  A    between atoms: C11_12  and  S1_13 
REMARK    3  A    between atoms: S1_13  and  C12_16 
REMARK    4  A    between atoms: C16_20  and  S2_22 
REMARK    5  A    between atoms: S2_22  and  N1_25 
ROOT
HETATM    1  C12 UNL     1      -0.371   0.687   0.796  1.00  0.00     0.089 A 
HETATM    2  C13 UNL     1      -0.523   0.837   2.159  1.00  0.00     0.011 A 
HETATM    3  C14 UNL     1      -1.374  -0.003   2.859  1.00  0.00     0.001 A 
HETATM    4  C15 UNL     1      -2.081  -0.998   2.217  1.00  0.00     0.012 A 
HETATM    5  C16 UNL     1      -1.943  -1.169   0.841  1.00  0.00     0.099 A 
HETATM    6  C17 UNL     1      -1.094  -0.318   0.195  1.00  0.00     0.024 A 
ENDROOT
BRANCH   1   7
HETATM    7  S1  UNL     1       0.684   1.706  -0.160  1.00  0.00     0.211 S 
HETATM    8  O2  UNL     1       0.725   3.053   0.547  1.00  0.00    -0.217 OA
HETATM    9  O3  UNL     1       0.070   1.903  -1.511  1.00  0.00    -0.217 OA
BRANCH   7  10
HETATM   10  C11 UNL     1       2.293   1.056  -0.263  1.00  0.00     0.106 A 
HETATM   11  C2  UNL     1       2.651   0.193  -1.274  1.00  0.00     0.104 A 
HETATM   12  C3  UNL     1       3.957  -0.309  -1.324  1.00  0.00     0.020 A 
HETATM   13  C4  UNL     1       4.895   0.041  -0.380  1.00  0.00    -0.024 A 
HETATM   14  C5  UNL     1       6.318  -0.383  -0.262  1.00  0.00     0.026 A 
HETATM   15  C8  UNL     1       4.540   0.893   0.619  1.00  0.00    -0.029 A 
HETATM   16  C6  UNL     1       6.802   0.255   1.017  1.00  0.00     0.009 A 
HETATM   17  C7  UNL     1       5.695   1.136   1.522  1.00  0.00     0.026 A 
HETATM   18  C9  UNL     1       3.256   1.387   0.667  1.00  0.00    -0.013 A 
HETATM   19  C10 UNL     1       2.842   2.325   1.755  1.00  0.00     0.031 C 
BRANCH  11  20
HETATM   20  O1  UNL     1       1.724  -0.167  -2.228  1.00  0.00    -0.328 OA
HETATM   21  C1  UNL     1       2.084  -1.060  -3.280  1.00  0.00     0.181 C 
ENDBRANCH  11  20
ENDBRANCH   7  10
ENDBRANCH   1   7
BRANCH   5  22
HETATM   22  S2  UNL     1      -2.839  -2.436   0.043  1.00  0.00     0.247 S 
HETATM   23  O4  UNL     1      -3.007  -3.590   0.991  1.00  0.00    -0.206 OA
HETATM   24  O5  UNL     1      -2.004  -2.937  -1.106  1.00  0.00    -0.206 OA
BRANCH  22  25
HETATM   25  N1  UNL     1      -4.379  -1.921  -0.455  1.00  0.00    -0.177 NA
HETATM   26  C18 UNL     1      -4.249  -0.846  -1.404  1.00  0.00     0.091 C 
HETATM   27  C19 UNL     1      -3.742   0.375  -0.677  1.00  0.00     0.051 C 
HETATM   28  C20 UNL     1      -4.713   0.791   0.371  1.00  0.00     0.155 C 
HETATM   29  O6  UNL     1      -5.796   1.463  -0.169  1.00  0.00    -0.223 OA
HETATM   30  C21 UNL     1      -5.120  -0.332   1.290  1.00  0.00     0.051 C 
HETATM   31  C22 UNL     1      -5.302  -1.632   0.584  1.00  0.00     0.091 C 
ENDBRANCH  22  25
ENDBRANCH   5  22
TORSDOF 5
