REMARK  4 active torsions:
REMARK  status: ('A' for Active; 'I' for Inactive)
REMARK       I    between atoms: N1_2  and  C3_4 
REMARK    1  A    between atoms: C3_4  and  C4_6 
REMARK    2  A    between atoms: C8_10  and  C9_11 
REMARK    3  A    between atoms: C9_11  and  N2_12 
REMARK    4  A    between atoms: C21_29  and  N5_30 
ROOT
HETATM    1  N2  UNL     1      -0.214   0.148   0.685  1.00  0.00    -0.287 N 
HETATM    2  C10 UNL     1      -0.367  -0.605  -0.443  1.00  0.00     0.180 C 
HETATM    3  N3  UNL     1      -1.221  -1.399  -0.923  1.00  0.00    -0.225 NA
HETATM    4  C11 UNL     1      -2.450  -1.787  -0.333  1.00  0.00     0.095 A 
HETATM    5  C12 UNL     1      -2.723  -2.950   0.340  1.00  0.00     0.020 A 
HETATM    6  C13 UNL     1      -3.958  -3.218   0.900  1.00  0.00     0.002 A 
HETATM    7  C14 UNL     1      -4.943  -2.268   0.769  1.00  0.00     0.001 A 
HETATM    8  C15 UNL     1      -4.685  -1.079   0.088  1.00  0.00     0.014 A 
HETATM    9  C16 UNL     1      -3.459  -0.814  -0.469  1.00  0.00     0.121 A 
HETATM   10  S1  UNL     1      -3.121   0.611  -1.354  1.00  0.00     0.269 S 
HETATM   11  O2  UNL     1      -1.987   0.361  -2.349  1.00  0.00    -0.200 OA
HETATM   12  O3  UNL     1      -4.298   0.914  -2.289  1.00  0.00    -0.200 OA
HETATM   13  N4  UNL     1      -2.675   1.995  -0.420  1.00  0.00    -0.254 N 
HETATM   14  C17 UNL     1      -3.480   3.237  -0.512  1.00  0.00     0.119 A 
HETATM   15  C18 UNL     1      -2.828   4.189   0.322  1.00  0.00     0.032 A 
HETATM   16  C19 UNL     1      -1.796   3.674   0.876  1.00  0.00     0.050 A 
HETATM   17  C20 UNL     1      -1.629   2.215   0.437  1.00  0.00     0.086 A 
HETATM   18  C21 UNL     1      -0.633   1.466   0.881  1.00  0.00     0.203 C 
ENDROOT
BRANCH   1  19
HETATM   19  C9  UNL     1       0.537  -0.493   1.881  1.00  0.00     0.136 C 
BRANCH  19  20
HETATM   20  C8  UNL     1       1.890  -0.829   1.413  1.00  0.00     0.001 A 
HETATM   21  C7  UNL     1       2.770  -1.416   2.288  1.00  0.00    -0.002 A 
HETATM   22  C6  UNL     1       4.058  -1.763   1.929  1.00  0.00    -0.000 A 
HETATM   23  C5  UNL     1       4.479  -1.519   0.664  1.00  0.00     0.005 A 
HETATM   24  C4  UNL     1       3.632  -0.934  -0.244  1.00  0.00     0.056 A 
HETATM   25  C22 UNL     1       2.323  -0.585   0.133  1.00  0.00     0.002 A 
BRANCH  24  26
HETATM   26  C3  UNL     1       4.105  -0.684  -1.587  1.00  0.00     0.257 C 
HETATM   27  N1  UNL     1       5.408  -1.026  -1.982  1.00  0.00    -0.313 N 
HETATM   28  C1  UNL     1       6.313  -1.650  -1.015  1.00  0.00     0.129 C 
HETATM   29  C2  UNL     1       5.938  -0.802  -3.306  1.00  0.00     0.129 C 
HETATM   30  O1  UNL     1       3.346  -0.153  -2.422  1.00  0.00    -0.267 OA
ENDBRANCH  24  26
ENDBRANCH  19  20
ENDBRANCH   1  19
BRANCH  18  31
HETATM   31  N5  UNL     1       0.288   2.187   1.817  1.00  0.00    -0.096 N 
HETATM   32  O4  UNL     1       1.496   2.627   1.408  1.00  0.00    -0.530 OA
HETATM   33  O5  UNL     1      -0.118   2.349   2.960  1.00  0.00    -0.530 OA
ENDBRANCH  18  31
TORSDOF 4
