REMARK  3 active torsions:
REMARK  status: ('A' for Active; 'I' for Inactive)
REMARK    1  A    between atoms: C2_2  and  C3_3 
REMARK    2  A    between atoms: C3_3  and  C4_5 
REMARK    3  A    between atoms: C6_7  and  C7_8 
ROOT
HETATM    1  C4  UNL     1       1.492  -0.515  -0.437  1.00  0.00     0.039 A 
HETATM    2  C5  UNL     1       1.302   0.764   0.078  1.00  0.00     0.009 A 
HETATM    3  C6  UNL     1       0.045   1.198   0.446  1.00  0.00     0.065 A 
HETATM    4  C8  UNL     1      -1.031   0.349   0.299  1.00  0.00     0.006 A 
HETATM    5  C9  UNL     1      -2.289   0.763   0.660  1.00  0.00     0.001 A 
HETATM    6  C10 UNL     1      -3.406  -0.055   0.532  1.00  0.00     0.011 A 
HETATM    7  C11 UNL     1      -3.268  -1.332   0.027  1.00  0.00     0.058 A 
HETATM    8 CL1  UNL     1      -4.669  -2.396  -0.149  1.00  0.00    -0.082 Cl
HETATM    9  C12 UNL     1      -2.003  -1.742  -0.334  1.00  0.00     0.011 A 
HETATM   10  C13 UNL     1      -0.887  -0.928  -0.207  1.00  0.00     0.001 A 
HETATM   11  C14 UNL     1       0.385  -1.327  -0.565  1.00  0.00     0.003 A 
ENDROOT
BRANCH   1  12
HETATM   12  C3  UNL     1       2.828  -0.954  -0.820  1.00  0.00     0.196 C 
HETATM   13  O1  UNL     1       2.962  -2.116  -1.282  1.00  0.00    -0.287 OA
BRANCH  12  14
HETATM   14  C2  UNL     1       3.953  -0.059  -0.664  1.00  0.00     0.042 C 
HETATM   15  C1  UNL     1       5.151  -0.491  -1.022  1.00  0.00     0.003 C 
ENDBRANCH  12  14
ENDBRANCH   1  12
BRANCH   3  16
HETATM   16  C7  UNL     1      -0.178   2.537   0.989  1.00  0.00     0.211 C 
HETATM   17  O2  UNL     1       0.932   3.376   1.127  1.00  0.00    -0.644 OA
HETATM   18  O3  UNL     1      -1.320   2.927   1.322  1.00  0.00    -0.644 OA
ENDBRANCH   3  16
TORSDOF 3
