REMARK  5 active torsions:
REMARK  status: ('A' for Active; 'I' for Inactive)
REMARK    1  A    between atoms: C3_3  and  C11_16 
REMARK    2  A    between atoms: N2_7  and  C5_8 
REMARK    3  A    between atoms: C5_8  and  C6_9 
REMARK    4  A    between atoms: C6_9  and  N3_10 
REMARK    5  A    between atoms: C11_16  and  C12_17 
ROOT
HETATM    1  C1  UNL     1       0.427   1.330   2.106  1.00  0.00     0.026 C 
HETATM    2  C2  UNL     1      -0.388   1.421   0.840  1.00  0.00     0.109 C 
HETATM    3  C3  UNL     1      -1.555   0.450   0.851  1.00  0.00     0.133 C 
HETATM    4  N1  UNL     1      -0.918  -0.797   0.450  1.00  0.00    -0.219 NA
HETATM    5  C4  UNL     1       0.196  -0.424  -0.384  1.00  0.00     0.342 C 
HETATM    6  O1  UNL     1       0.852  -1.207  -1.102  1.00  0.00    -0.245 OA
HETATM    7  N2  UNL     1       0.452   0.967  -0.281  1.00  0.00    -0.296 N 
ENDROOT
BRANCH   7   8
HETATM    8  C5  UNL     1       1.290   1.847  -1.013  1.00  0.00     0.151 C 
BRANCH   8   9
HETATM    9  C6  UNL     1       2.667   2.061  -0.563  1.00  0.00     0.077 C 
BRANCH   9  10
HETATM   10  N3  UNL     1       3.560   0.992  -0.474  1.00  0.00    -0.308 N 
HETATM   11  C7  UNL     1       3.401  -0.010   0.486  1.00  0.00     0.085 C 
HETATM   12  C8  UNL     1       4.659  -0.563   1.089  1.00  0.00     0.188 C 
HETATM   13  O2  UNL     1       5.818   0.078   0.678  1.00  0.00    -0.342 OA
HETATM   14  C9  UNL     1       5.884   0.235  -0.704  1.00  0.00     0.188 C 
HETATM   15  C10 UNL     1       4.745   1.077  -1.227  1.00  0.00     0.085 C 
ENDBRANCH   9  10
ENDBRANCH   8   9
ENDBRANCH   7   8
BRANCH   3  16
HETATM   16  C11 UNL     1      -2.592   0.871  -0.177  1.00  0.00     0.053 C 
BRANCH  16  17
HETATM   17  C12 UNL     1      -3.711  -0.114  -0.124  1.00  0.00    -0.020 A 
HETATM   18  C13 UNL     1      -3.706  -1.240  -0.913  1.00  0.00    -0.004 A 
HETATM   19  C14 UNL     1      -4.686  -2.180  -0.917  1.00  0.00    -0.000 A 
HETATM   20  C15 UNL     1      -5.782  -2.019  -0.076  1.00  0.00    -0.000 A 
HETATM   21  C16 UNL     1      -5.806  -0.885   0.731  1.00  0.00    -0.000 A 
HETATM   22  C17 UNL     1      -4.808   0.053   0.723  1.00  0.00    -0.004 A 
ENDBRANCH  16  17
ENDBRANCH   3  16
TORSDOF 5
