REMARK  6 active torsions:
REMARK  status: ('A' for Active; 'I' for Inactive)
REMARK    1  A    between atoms: N1_2  and  C2_3 
REMARK       I    between atoms: N1_2  and  C8_9 
REMARK    2  A    between atoms: C8_9  and  C9_11 
REMARK    3  A    between atoms: C15_17  and  S1_18 
REMARK    4  A    between atoms: S1_18  and  C16_19 
REMARK    5  A    between atoms: C19_22  and  N2_23 
REMARK       I    between atoms: N2_23  and  C20_24 
REMARK       I    between atoms: C20_24  and  N3_26 
REMARK    6  A    between atoms: N3_26  and  C21_27 
ROOT
HETATM    1  S1  UNL     1      -2.174   0.565   1.689  1.00  0.00    -0.087 SA
ENDROOT
BRANCH   1   2
HETATM    2  C15 UNL     1      -3.129   1.216   0.342  1.00  0.00     0.030 A 
HETATM    3  C9  UNL     1      -4.521   1.107   0.437  1.00  0.00     0.062 A 
HETATM    4  C10 UNL     1      -5.255   1.615  -0.607  1.00  0.00     0.005 A 
HETATM    5  C11 UNL     1      -4.661   2.211  -1.711  1.00  0.00    -0.000 A 
HETATM    6  C12 UNL     1      -3.282   2.298  -1.766  1.00  0.00    -0.004 A 
HETATM    7  C13 UNL     1      -2.522   1.799  -0.738  1.00  0.00    -0.016 A 
HETATM    8  C14 UNL     1      -1.051   1.905  -0.822  1.00  0.00     0.032 C 
BRANCH   3   9
HETATM    9  C8  UNL     1      -5.132   0.481   1.595  1.00  0.00     0.261 C 
HETATM   10  N1  UNL     1      -5.397  -0.904   1.636  1.00  0.00    -0.294 N 
HETATM   11  C1  UNL     1      -6.010  -1.461   2.835  1.00  0.00     0.134 C 
HETATM   12  O1  UNL     1      -5.423   1.195   2.572  1.00  0.00    -0.267 OA
BRANCH  10  13
HETATM   13  C2  UNL     1      -5.081  -1.769   0.530  1.00  0.00     0.063 A 
HETATM   14  C3  UNL     1      -5.825  -1.669  -0.634  1.00  0.00     0.017 A 
HETATM   15  C4  UNL     1      -5.548  -2.478  -1.703  1.00  0.00     0.002 A 
HETATM   16  C5  UNL     1      -4.529  -3.405  -1.649  1.00  0.00     0.000 A 
HETATM   17  C6  UNL     1      -3.780  -3.514  -0.492  1.00  0.00     0.002 A 
HETATM   18  C7  UNL     1      -4.061  -2.695   0.589  1.00  0.00     0.017 A 
ENDBRANCH  10  13
ENDBRANCH   3   9
ENDBRANCH   1   2
BRANCH   1  19
HETATM   19  C16 UNL     1      -0.429   0.767   1.431  1.00  0.00     0.029 A 
HETATM   20  C17 UNL     1       0.214   1.898   1.858  1.00  0.00     0.008 A 
HETATM   21  C18 UNL     1       1.585   2.026   1.641  1.00  0.00     0.020 A 
HETATM   22  C19 UNL     1       2.317   1.045   1.007  1.00  0.00     0.086 A 
HETATM   23  C27 UNL     1       1.655  -0.073   0.589  1.00  0.00     0.020 A 
HETATM   24  C28 UNL     1       0.287  -0.214   0.799  1.00  0.00     0.008 A 
BRANCH  22  25
HETATM   25  N2  UNL     1       3.711   1.260   0.827  1.00  0.00    -0.191 NA
HETATM   26  C20 UNL     1       4.477   0.252   0.201  1.00  0.00     0.369 C 
HETATM   27  O2  UNL     1       3.909  -0.790  -0.172  1.00  0.00    -0.242 OA
HETATM   28  N3  UNL     1       5.876   0.355  -0.034  1.00  0.00    -0.191 NA
BRANCH  28  29
HETATM   29  C21 UNL     1       6.607  -0.688  -0.667  1.00  0.00     0.086 A 
HETATM   30  C22 UNL     1       6.061  -1.855  -1.092  1.00  0.00     0.020 A 
HETATM   31  C23 UNL     1       6.872  -2.794  -1.692  1.00  0.00     0.013 A 
HETATM   32  C24 UNL     1       8.228  -2.588  -1.877  1.00  0.00     0.058 A 
HETATM   33 CL1  UNL     1       9.270  -3.756  -2.629  1.00  0.00    -0.082 Cl
HETATM   34  C25 UNL     1       8.786  -1.396  -1.443  1.00  0.00     0.013 A 
HETATM   35  C26 UNL     1       7.956  -0.473  -0.847  1.00  0.00     0.020 A 
ENDBRANCH  28  29
ENDBRANCH  22  25
ENDBRANCH   1  19
TORSDOF 6
