REMARK  8 active torsions:
REMARK  status: ('A' for Active; 'I' for Inactive)
REMARK    1  A    between atoms: C2_2  and  C3_3 
REMARK    2  A    between atoms: C3_3  and  N1_5 
REMARK    3  A    between atoms: C3_3  and  C19_25 
REMARK       I    between atoms: N1_5  and  C5_6 
REMARK    4  A    between atoms: C5_6  and  C6_8 
REMARK    5  A    between atoms: C8_10  and  N2_11 
REMARK    6  A    between atoms: N2_11  and  S1_12 
REMARK    7  A    between atoms: S1_12  and  C9_15 
REMARK    8  A    between atoms: C19_25  and  C20_27 
ROOT
HETATM    1  C6  UNL     1       0.405  -0.842   0.182  1.00  0.00     0.055 A 
HETATM    2  C7  UNL     1      -0.355   0.056   0.910  1.00  0.00     0.024 A 
HETATM    3  C8  UNL     1      -1.728  -0.063   0.979  1.00  0.00     0.094 A 
HETATM    4  C15 UNL     1      -2.309  -1.109   0.298  1.00  0.00     0.020 A 
HETATM    5  C16 UNL     1      -1.546  -2.007  -0.430  1.00  0.00    -0.003 A 
HETATM    6  C17 UNL     1      -0.172  -1.890  -0.502  1.00  0.00    -0.017 A 
HETATM    7  C18 UNL     1       0.661  -2.854  -1.284  1.00  0.00     0.031 C 
ENDROOT
BRANCH   1   8
HETATM    8  C5  UNL     1       1.863  -0.667   0.143  1.00  0.00     0.275 C 
HETATM    9  N1  UNL     1       2.450   0.627   0.103  1.00  0.00    -0.231 NA
HETATM   10  O1  UNL     1       2.621  -1.656   0.143  1.00  0.00    -0.266 OA
BRANCH   9  11
HETATM   11  C3  UNL     1       3.879   0.808   0.064  1.00  0.00     0.147 C 
HETATM   12  C4  UNL     1       4.581   0.210   1.253  1.00  0.00     0.032 C 
BRANCH  11  13
HETATM   13  C2  UNL     1       4.153   2.300   0.028  1.00  0.00     0.030 C 
HETATM   14  C1  UNL     1       3.441   2.896  -1.175  1.00  0.00     0.002 C 
ENDBRANCH  11  13
BRANCH  11  15
HETATM   15  C19 UNL     1       4.451   0.198  -1.191  1.00  0.00     0.264 C 
HETATM   16  O4  UNL     1       3.684  -0.339  -1.966  1.00  0.00    -0.285 OA
BRANCH  15  17
HETATM   17  C20 UNL     1       5.891   0.238  -1.490  1.00  0.00     0.453 C 
HETATM   18  F1  UNL     1       6.361   1.541  -1.580  1.00  0.00    -0.163 F 
HETATM   19  F2  UNL     1       6.586  -0.403  -0.467  1.00  0.00    -0.163 F 
HETATM   20  F3  UNL     1       6.133  -0.424  -2.668  1.00  0.00    -0.163 F 
ENDBRANCH  15  17
ENDBRANCH  11  15
ENDBRANCH   9  11
ENDBRANCH   1   8
BRANCH   3  21
HETATM   21  N2  UNL     1      -2.497   0.873   1.735  1.00  0.00    -0.158 NA
BRANCH  21  22
HETATM   22  S1  UNL     1      -3.942   1.549   1.092  1.00  0.00     0.285 S 
HETATM   23  O2  UNL     1      -3.575   2.258  -0.193  1.00  0.00    -0.198 OA
HETATM   24  O3  UNL     1      -4.524   2.495   2.097  1.00  0.00    -0.198 OA
BRANCH  22  25
HETATM   25  C9  UNL     1      -5.145   0.329   0.761  1.00  0.00     0.105 A 
HETATM   26  C10 UNL     1      -6.053  -0.035   1.716  1.00  0.00     0.013 A 
HETATM   27  C11 UNL     1      -6.997  -0.995   1.452  1.00  0.00     0.001 A 
HETATM   28  C12 UNL     1      -7.016  -1.584   0.215  1.00  0.00     0.000 A 
HETATM   29  C13 UNL     1      -6.121  -1.239  -0.758  1.00  0.00     0.001 A 
HETATM   30  C14 UNL     1      -5.179  -0.272  -0.475  1.00  0.00     0.013 A 
ENDBRANCH  22  25
ENDBRANCH  21  22
ENDBRANCH   3  21
TORSDOF 8
