REMARK  5 active torsions:
REMARK  status: ('A' for Active; 'I' for Inactive)
REMARK    1  A    between atoms: S1_2  and  N1_5 
REMARK    2  A    between atoms: N1_5  and  C2_6 
REMARK    3  A    between atoms: C5_9  and  C8_12 
REMARK    4  A    between atoms: C11_16  and  C22_31 
REMARK    5  A    between atoms: C12_17  and  N4_28 
ROOT
HETATM    1  C8  UNL     1       1.021   0.279   0.607  1.00  0.00     0.144 C 
HETATM    2  N2  UNL     1       0.118   0.011  -0.271  1.00  0.00    -0.229 NA
HETATM    3  C9  UNL     1      -1.321  -0.027  -0.156  1.00  0.00     0.083 A 
HETATM    4  C10 UNL     1      -1.959  -0.138  -1.356  1.00  0.00     0.022 A 
HETATM    5  C11 UNL     1      -3.367  -0.190  -1.425  1.00  0.00     0.041 A 
HETATM    6  C12 UNL     1      -4.045  -0.127  -0.251  1.00  0.00     0.128 A 
HETATM    7  C13 UNL     1      -3.395  -0.011   1.004  1.00  0.00     0.025 A 
HETATM    8  C14 UNL     1      -2.036   0.038   1.034  1.00  0.00     0.021 A 
HETATM    9  C15 UNL     1      -1.539   0.161   2.406  1.00  0.00     0.017 A 
HETATM   10  C16 UNL     1      -2.527  -0.015   3.361  1.00  0.00     0.002 A 
HETATM   11  C17 UNL     1      -2.250   0.064   4.719  1.00  0.00     0.000 A 
HETATM   12  C18 UNL     1      -0.959   0.325   5.154  1.00  0.00     0.002 A 
HETATM   13  C19 UNL     1       0.030   0.501   4.193  1.00  0.00     0.017 A 
HETATM   14  C20 UNL     1      -0.257   0.420   2.846  1.00  0.00     0.061 A 
HETATM   15  N3  UNL     1       0.870   0.624   1.991  1.00  0.00    -0.311 N 
HETATM   16  C21 UNL     1       1.992   1.266   2.641  1.00  0.00     0.132 C 
ENDROOT
BRANCH   1  17
HETATM   17  C5  UNL     1       2.380   0.223   0.137  1.00  0.00     0.034 A 
HETATM   18  C4  UNL     1       2.784  -0.639  -0.855  1.00  0.00     0.005 A 
HETATM   19  C3  UNL     1       4.093  -0.676  -1.290  1.00  0.00     0.020 A 
HETATM   20  C2  UNL     1       5.059   0.145  -0.755  1.00  0.00     0.093 A 
HETATM   21  C7  UNL     1       4.664   1.013   0.241  1.00  0.00     0.020 A 
HETATM   22  C6  UNL     1       3.359   1.055   0.679  1.00  0.00     0.005 A 
BRANCH  20  23
HETATM   23  N1  UNL     1       6.394   0.068  -1.237  1.00  0.00    -0.162 NA
BRANCH  23  24
HETATM   24  S1  UNL     1       7.761   0.050  -0.184  1.00  0.00     0.266 S 
HETATM   25  C1  UNL     1       7.746  -1.357   0.901  1.00  0.00     0.165 C 
HETATM   26  O1  UNL     1       7.787   1.284   0.657  1.00  0.00    -0.203 OA
HETATM   27  O2  UNL     1       8.996   0.032  -1.063  1.00  0.00    -0.203 OA
ENDBRANCH  23  24
ENDBRANCH  20  23
ENDBRANCH   1  17
BRANCH   5  28
HETATM   28  C22 UNL     1      -3.966  -0.267  -2.763  1.00  0.00     0.081 A 
HETATM   29  C23 UNL     1      -5.259  -0.261  -3.150  1.00  0.00     0.041 A 
HETATM   30  C24 UNL     1      -5.315  -0.357  -4.524  1.00  0.00     0.122 A 
HETATM   31  N5  UNL     1      -4.055  -0.421  -4.969  1.00  0.00    -0.168 NA
HETATM   32  N6  UNL     1      -3.261  -0.367  -3.915  1.00  0.00    -0.249 N 
HETATM   33  C25 UNL     1      -1.798  -0.409  -3.949  1.00  0.00     0.154 C 
ENDBRANCH   5  28
BRANCH   6  34
HETATM   34  N4  UNL     1      -5.471  -0.179  -0.219  1.00  0.00    -0.114 N 
HETATM   35  O3  UNL     1      -6.178   0.554   0.727  1.00  0.00    -0.532 OA
HETATM   36  O4  UNL     1      -6.096  -0.908  -0.968  1.00  0.00    -0.532 OA
ENDBRANCH   6  34
TORSDOF 5
