REMARK  1 active torsions:
REMARK  status: ('A' for Active; 'I' for Inactive)
REMARK    1  A    between atoms: C6_7  and  C7_8 
ROOT
HETATM    1  C7  UNL     1       0.103  -0.447  -0.120  1.00  0.00     0.082 A 
HETATM    2  N1  UNL     1       0.372  -1.788  -0.009  1.00  0.00    -0.224 NA
HETATM    3  C8  UNL     1       1.641  -2.182   0.069  1.00  0.00     0.200 A 
HETATM    4  N2  UNL     1       2.707  -1.387   0.056  1.00  0.00    -0.214 NA
HETATM    5  C9  UNL     1       2.485  -0.045  -0.050  1.00  0.00     0.148 A 
HETATM    6  C10 UNL     1       3.592   0.871  -0.063  1.00  0.00     0.120 C 
HETATM    7  N3  UNL     1       4.506   1.619  -0.048  1.00  0.00    -0.190 NA
HETATM    8  C11 UNL     1       1.172   0.409  -0.139  1.00  0.00     0.023 A 
HETATM    9  C12 UNL     1       0.904   1.873  -0.254  1.00  0.00     0.035 C 
ENDROOT
BRANCH   1  10
HETATM   10  C6  UNL     1      -1.280  -0.026  -0.185  1.00  0.00     0.028 A 
HETATM   11  C1  UNL     1      -2.177  -0.252   0.813  1.00  0.00     0.059 A 
HETATM   12 CL1  UNL     1      -1.616  -1.036   2.298  1.00  0.00    -0.082 Cl
HETATM   13  C2  UNL     1      -3.541   0.103   0.754  1.00  0.00     0.011 A 
HETATM   14  C3  UNL     1      -3.985   0.718  -0.378  1.00  0.00     0.001 A 
HETATM   15  C4  UNL     1      -3.095   0.968  -1.424  1.00  0.00     0.000 A 
HETATM   16  C5  UNL     1      -1.787   0.602  -1.321  1.00  0.00     0.002 A 
ENDBRANCH   1  10
TORSDOF 1
