REMARK  5 active torsions:
REMARK  status: ('A' for Active; 'I' for Inactive)
REMARK    1  A    between atoms: C2_2  and  O1_3 
REMARK    2  A    between atoms: O1_3  and  C3_4 
REMARK    3  A    between atoms: C3_4  and  C4_6 
REMARK    4  A    between atoms: C7_10  and  O4_11 
REMARK    5  A    between atoms: C7_10  and  C8_13 
ROOT
HETATM    1  C4  UNL     1       1.374   1.072  -0.334  1.00  0.00     0.143 C 
HETATM    2  C5  UNL     1       2.309   0.957  -1.523  1.00  0.00     0.047 C 
HETATM    3  C6  UNL     1       1.739  -0.257  -2.254  1.00  0.00     0.146 C 
HETATM    4  O3  UNL     1       0.806  -0.818  -1.380  1.00  0.00    -0.332 OA
HETATM    5  C7  UNL     1       0.162   0.355  -0.914  1.00  0.00     0.235 C 
ENDROOT
BRANCH   5   6
HETATM    6  O4  UNL     1      -0.180   1.049  -2.067  1.00  0.00    -0.156 OA
HETATM    7  F1  UNL     1      -1.207   0.480  -2.646  1.00  0.00    -0.044 F 
ENDBRANCH   5   6
BRANCH   5   8
HETATM    8  C8  UNL     1      -0.900   0.097   0.038  1.00  0.00     0.089 C 
HETATM    9  C9  UNL     1      -1.554   1.226   0.739  1.00  0.00     0.255 C 
HETATM   10  N1  UNL     1      -2.809   0.732   1.363  1.00  0.00     0.137 N 
HETATM   11  C10 UNL     1      -2.602  -0.652   1.810  1.00  0.00     0.250 C 
HETATM   12  C14 UNL     1      -3.798   0.701   0.274  1.00  0.00     0.250 C 
HETATM   13  C11 UNL     1      -2.495  -1.614   0.625  1.00  0.00     0.036 C 
HETATM   14  C12 UNL     1      -1.983  -0.774  -0.545  1.00  0.00     0.011 C 
HETATM   15  C13 UNL     1      -3.189   0.072  -0.953  1.00  0.00     0.036 C 
ENDBRANCH   5   8
BRANCH   1  16
HETATM   16  C3  UNL     1       1.964   0.328   0.781  1.00  0.00     0.276 C 
HETATM   17  O2  UNL     1       1.340  -0.634   1.290  1.00  0.00    -0.264 OA
BRANCH  16  18
HETATM   18  O1  UNL     1       3.190   0.652   1.293  1.00  0.00    -0.302 OA
BRANCH  18  19
HETATM   19  C2  UNL     1       3.809  -0.034   2.371  1.00  0.00     0.152 C 
HETATM   20  C1  UNL     1       4.022  -1.494   2.032  1.00  0.00     0.035 C 
ENDBRANCH  18  19
ENDBRANCH  16  18
ENDBRANCH   1  16
TORSDOF 5
