REMARK  6 active torsions:
REMARK  status: ('A' for Active; 'I' for Inactive)
REMARK    1  A    between atoms: C2_2  and  N1_3 
REMARK    2  A    between atoms: N1_3  and  C3_4 
REMARK    3  A    between atoms: C3_4  and  N2_6 
REMARK    4  A    between atoms: N2_6  and  N3_7 
REMARK    5  A    between atoms: C4_8  and  C5_9 
REMARK    6  A    between atoms: N6_14  and  C7_15 
ROOT
HETATM    1  C5  UNL     1       0.649   0.059   0.182  1.00  0.00     0.156 A 
HETATM    2  N4  UNL     1      -0.299   0.987   0.094  1.00  0.00    -0.138 NA
HETATM    3  N5  UNL     1      -1.513   0.639   0.050  1.00  0.00    -0.121 NA
HETATM    4  C6  UNL     1      -1.835  -0.649   0.090  1.00  0.00     0.216 A 
HETATM    5  S2  UNL     1      -0.290  -1.368   0.197  1.00  0.00    -0.025 SA
HETATM    6  N6  UNL     1      -3.024  -1.196   0.055  1.00  0.00    -0.220 NA
ENDROOT
BRANCH   1   7
HETATM    7  C4  UNL     1       2.088   0.297   0.244  1.00  0.00     0.150 C 
HETATM    8  N3  UNL     1       2.811  -0.794   0.325  1.00  0.00    -0.142 NA
BRANCH   8   9
HETATM    9  N2  UNL     1       4.199  -0.739   0.392  1.00  0.00    -0.117 NA
BRANCH   9  10
HETATM   10  C3  UNL     1       4.854   0.472   0.072  1.00  0.00     0.236 C 
HETATM   11  S1  UNL     1       4.000   1.769  -0.366  1.00  0.00    -0.035 SA
BRANCH  10  12
HETATM   12  N1  UNL     1       6.279   0.573   0.127  1.00  0.00    -0.242 NA
BRANCH  12  13
HETATM   13  C2  UNL     1       7.109  -0.568   0.517  1.00  0.00     0.128 C 
HETATM   14  C1  UNL     1       6.995  -1.611  -0.601  1.00  0.00     0.029 C 
ENDBRANCH  12  13
ENDBRANCH  10  12
ENDBRANCH   9  10
ENDBRANCH   8   9
ENDBRANCH   1   7
BRANCH   6  15
HETATM   15  C7  UNL     1      -4.187  -0.394  -0.037  1.00  0.00     0.084 A 
HETATM   16  C8  UNL     1      -4.338   0.774   0.661  1.00  0.00     0.019 A 
HETATM   17  C9  UNL     1      -5.484   1.549   0.561  1.00  0.00     0.002 A 
HETATM   18  C10 UNL     1      -6.484   1.095  -0.281  1.00  0.00     0.000 A 
HETATM   19  C11 UNL     1      -6.344  -0.070  -0.983  1.00  0.00     0.002 A 
HETATM   20  C12 UNL     1      -5.187  -0.825  -0.864  1.00  0.00     0.019 A 
ENDBRANCH   6  15
TORSDOF 6
