REMARK  6 active torsions:
REMARK  status: ('A' for Active; 'I' for Inactive)
REMARK    1  A    between atoms: O1_2  and  C2_3 
REMARK    2  A    between atoms: C2_3  and  C3_4 
REMARK    3  A    between atoms: C3_4  and  N1_5 
REMARK    4  A    between atoms: N1_5  and  C5_7 
REMARK    5  A    between atoms: N2_10  and  C9_12 
REMARK    6  A    between atoms: C11_14  and  C14_18 
ROOT
HETATM    1  C9  UNL     1      -0.161  -0.912   0.494  1.00  0.00     0.140 A 
HETATM    2  C10 UNL     1      -1.262  -0.422  -0.180  1.00  0.00     0.037 A 
HETATM    3  C11 UNL     1      -2.489  -0.213   0.388  1.00  0.00     0.005 A 
HETATM    4  C12 UNL     1      -2.599  -0.528   1.747  1.00  0.00     0.021 A 
HETATM    5  C13 UNL     1      -1.512  -1.019   2.439  1.00  0.00     0.101 A 
HETATM    6  N3  UNL     1      -0.337  -1.196   1.807  1.00  0.00    -0.227 NA
ENDROOT
BRANCH   1   7
HETATM    7  N2  UNL     1       1.081  -1.105  -0.146  1.00  0.00    -0.332 N 
HETATM    8  C7  UNL     1       1.418  -0.845  -1.522  1.00  0.00     0.105 C 
HETATM    9  C6  UNL     1       2.803  -0.249  -1.406  1.00  0.00     0.059 C 
HETATM   10  C5  UNL     1       3.276  -0.517   0.016  1.00  0.00     0.243 C 
HETATM   11  C8  UNL     1       2.293  -1.610   0.453  1.00  0.00     0.136 C 
BRANCH  10  12
HETATM   12  N1  UNL     1       4.615  -1.050   0.065  1.00  0.00     0.142 N 
HETATM   13  C4  UNL     1       4.744  -2.315  -0.633  1.00  0.00     0.285 C 
BRANCH  12  14
HETATM   14  C3  UNL     1       5.592  -0.146  -0.460  1.00  0.00     0.282 C 
BRANCH  14  15
HETATM   15  C2  UNL     1       5.576   1.205   0.167  1.00  0.00     0.178 C 
BRANCH  15  16
HETATM   16  O1  UNL     1       5.811   1.213   1.525  1.00  0.00    -0.349 OA
HETATM   17  C1  UNL     1       5.758   2.565   1.933  1.00  0.00     0.174 C 
ENDBRANCH  15  16
ENDBRANCH  14  15
ENDBRANCH  12  14
ENDBRANCH  10  12
ENDBRANCH   1   7
BRANCH   3  18
HETATM   18  C14 UNL     1      -3.605   0.302  -0.368  1.00  0.00     0.002 A 
HETATM   19  C15 UNL     1      -3.737   0.012  -1.702  1.00  0.00     0.000 A 
HETATM   20  C16 UNL     1      -4.805   0.498  -2.449  1.00  0.00     0.002 A 
HETATM   21  C17 UNL     1      -5.723   1.282  -1.795  1.00  0.00     0.030 A 
HETATM   22  C18 UNL     1      -5.625   1.592  -0.470  1.00  0.00     0.140 A 
HETATM   23  F1  UNL     1      -6.568   2.374   0.119  1.00  0.00    -0.204 F 
HETATM   24  C19 UNL     1      -4.544   1.086   0.240  1.00  0.00     0.030 A 
ENDBRANCH   3  18
TORSDOF 6
