REMARK  3 active torsions:
REMARK  status: ('A' for Active; 'I' for Inactive)
REMARK    1  A    between atoms: C6_7  and  C7_8 
REMARK    2  A    between atoms: N1_10  and  C9_11 
REMARK    3  A    between atoms: C9_11  and  C10_12 
ROOT
HETATM    1  C7  UNL     1      -1.310  -0.754  -0.331  1.00  0.00     0.040 A 
HETATM    2  C8  UNL     1      -0.339  -1.567  -0.878  1.00  0.00     0.079 A 
HETATM    3  N1  UNL     1       0.744  -0.808  -1.120  1.00  0.00    -0.306 N 
HETATM    4  C16 UNL     1       0.521   0.474  -0.751  1.00  0.00     0.162 A 
HETATM    5  N2  UNL     1       1.299   1.583  -0.800  1.00  0.00    -0.225 NA
HETATM    6  C17 UNL     1       0.830   2.759  -0.361  1.00  0.00     0.101 A 
HETATM    7  C18 UNL     1       1.642   3.885  -0.418  1.00  0.00     0.021 A 
HETATM    8  C19 UNL     1       1.124   5.065   0.040  1.00  0.00     0.002 A 
HETATM    9  C20 UNL     1      -0.151   5.133   0.537  1.00  0.00     0.002 A 
HETATM   10  C21 UNL     1      -0.939   4.011   0.586  1.00  0.00     0.021 A 
HETATM   11  C22 UNL     1      -0.457   2.797   0.134  1.00  0.00     0.099 A 
HETATM   12  N3  UNL     1      -1.245   1.710   0.191  1.00  0.00    -0.241 NA
HETATM   13  C23 UNL     1      -0.755   0.528  -0.257  1.00  0.00     0.117 A 
ENDROOT
BRANCH   1  14
HETATM   14  C6  UNL     1      -2.655  -1.089   0.103  1.00  0.00     0.028 A 
HETATM   15  C1  UNL     1      -2.819  -2.227   0.880  1.00  0.00     0.131 A 
HETATM   16  O1  UNL     1      -1.737  -3.021   1.232  1.00  0.00    -0.190 OA
HETATM   17  C2  UNL     1      -4.106  -2.531   1.284  1.00  0.00     0.027 A 
HETATM   18  C3  UNL     1      -5.177  -1.744   0.935  1.00  0.00     0.002 A 
HETATM   19  C4  UNL     1      -5.005  -0.613   0.162  1.00  0.00     0.000 A 
HETATM   20  C5  UNL     1      -3.737  -0.306  -0.242  1.00  0.00     0.002 A 
ENDBRANCH   1  14
BRANCH   3  21
HETATM   21  C9  UNL     1       2.029  -1.225  -1.697  1.00  0.00     0.134 C 
BRANCH  21  22
HETATM   22  C10 UNL     1       2.896  -1.636  -0.538  1.00  0.00     0.001 A 
HETATM   23  C11 UNL     1       2.906  -2.937  -0.085  1.00  0.00    -0.002 A 
HETATM   24  C12 UNL     1       3.708  -3.290   0.981  1.00  0.00    -0.000 A 
HETATM   25  C13 UNL     1       4.521  -2.390   1.634  1.00  0.00    -0.000 A 
HETATM   26  C14 UNL     1       4.505  -1.078   1.168  1.00  0.00    -0.000 A 
HETATM   27  C15 UNL     1       3.706  -0.728   0.107  1.00  0.00    -0.002 A 
ENDBRANCH  21  22
ENDBRANCH   3  21
TORSDOF 3
