REMARK  8 active torsions:
REMARK  status: ('A' for Active; 'I' for Inactive)
REMARK    1  A    between atoms: C5_6  and  C6_7 
REMARK    2  A    between atoms: C6_7  and  C7_8 
REMARK    3  A    between atoms: C7_8  and  O3_10 
REMARK    4  A    between atoms: O3_10  and  C8_11 
REMARK    5  A    between atoms: C8_11  and  C9_12 
REMARK    6  A    between atoms: C9_12  and  C10_14 
REMARK    7  A    between atoms: C11_15  and  C12_16 
REMARK    8  A    between atoms: C16_20  and  C18_22 
ROOT
HETATM    1  C9  UNL     1      -0.196  -0.522   0.762  1.00  0.00     0.203 C 
HETATM    2  O4  UNL     1       0.587   0.363   1.185  1.00  0.00    -0.289 OA
ENDROOT
BRANCH   1   3
HETATM    3  C8  UNL     1       0.300  -1.889   0.608  1.00  0.00     0.220 C 
BRANCH   3   4
HETATM    4  O3  UNL     1       1.633  -2.065   0.962  1.00  0.00    -0.293 OA
BRANCH   4   5
HETATM    5  C7  UNL     1       2.714  -1.435   0.398  1.00  0.00     0.277 C 
HETATM    6  O2  UNL     1       2.505  -0.618  -0.527  1.00  0.00    -0.264 OA
BRANCH   5   7
HETATM    7  C6  UNL     1       4.105  -1.676   0.829  1.00  0.00     0.122 C 
BRANCH   7   8
HETATM    8  C5  UNL     1       5.007  -0.835   0.011  1.00  0.00    -0.010 A 
HETATM    9  C4  UNL     1       5.558  -1.262  -1.181  1.00  0.00    -0.004 A 
HETATM   10  C3  UNL     1       6.393  -0.456  -1.919  1.00  0.00     0.002 A 
HETATM   11  C2  UNL     1       6.678   0.810  -1.444  1.00  0.00     0.027 A 
HETATM   12  C1  UNL     1       6.137   1.238  -0.267  1.00  0.00     0.131 A 
HETATM   13  O1  UNL     1       6.393   2.511   0.260  1.00  0.00    -0.190 OA
HETATM   14  C19 UNL     1       5.306   0.430   0.463  1.00  0.00     0.024 A 
ENDBRANCH   7   8
ENDBRANCH   5   7
ENDBRANCH   4   5
ENDBRANCH   3   4
ENDBRANCH   1   3
BRANCH   1  15
HETATM   15  C10 UNL     1      -1.561  -0.135   0.445  1.00  0.00     0.040 C 
HETATM   16  C11 UNL     1      -2.440  -1.012  -0.005  1.00  0.00     0.003 C 
BRANCH  16  17
HETATM   17  C12 UNL     1      -3.795  -0.625  -0.318  1.00  0.00    -0.000 A 
HETATM   18  C13 UNL     1      -4.681  -1.556  -0.782  1.00  0.00    -0.000 A 
HETATM   19  C14 UNL     1      -5.994  -1.185  -1.087  1.00  0.00    -0.000 A 
HETATM   20  C15 UNL     1      -6.357   0.144  -0.903  1.00  0.00     0.001 A 
HETATM   21  C16 UNL     1      -5.485   1.096  -0.439  1.00  0.00     0.044 A 
HETATM   22  C17 UNL     1      -4.183   0.680  -0.147  1.00  0.00     0.001 A 
BRANCH  21  23
HETATM   23  C18 UNL     1      -5.944   2.489  -0.269  1.00  0.00     0.341 C 
HETATM   24  F1  UNL     1      -7.302   2.497  -0.171  1.00  0.00    -0.193 F 
HETATM   25  F2  UNL     1      -5.379   3.013   0.887  1.00  0.00    -0.193 F 
ENDBRANCH  21  23
ENDBRANCH  16  17
ENDBRANCH   1  15
TORSDOF 8
