REMARK  1 active torsions:
REMARK  status: ('A' for Active; 'I' for Inactive)
REMARK    1  A    between atoms: N1_11  and  C12_13 
ROOT
HETATM    1  C1  UNL     1      -2.012   2.655   1.117  1.00  0.00     0.000 C 
HETATM    2  C2  UNL     1      -2.484   1.218   1.125  1.00  0.00     0.000 C 
HETATM    3  C3  UNL     1      -3.835   1.084   0.460  1.00  0.00     0.000 C 
HETATM    4  C4  UNL     1      -3.626   0.342  -0.848  1.00  0.00     0.000 C 
HETATM    5  C5  UNL     1      -2.479   1.015  -1.596  1.00  0.00     0.002 C 
HETATM    6  C6  UNL     1      -1.168   0.646  -0.929  1.00  0.00     0.023 C 
HETATM    7  C7  UNL     1      -1.463   0.284   0.522  1.00  0.00     0.002 C 
HETATM    8  C8  UNL     1      -2.097  -1.110   0.536  1.00  0.00     0.002 C 
HETATM    9  C9  UNL     1      -1.073  -2.074   1.082  1.00  0.00     0.025 C 
HETATM   10  C10 UNL     1      -0.130  -2.471  -0.055  1.00  0.00     0.120 C 
HETATM   11  N1  UNL     1       0.287  -1.239  -0.686  1.00  0.00    -0.183 N 
HETATM   12  C11 UNL     1      -0.493  -0.482  -1.643  1.00  0.00     0.120 C 
ENDROOT
BRANCH  11  13
HETATM   13  C12 UNL     1       1.563  -0.765  -0.317  1.00  0.00     0.727 A 
HETATM   14  N2  UNL     1       2.293  -1.455   0.565  1.00  0.00    -0.060 NA
HETATM   15  C13 UNL     1       3.522  -1.043   0.952  1.00  0.00     0.119 A 
HETATM   16  C14 UNL     1       4.050   0.113   0.436  1.00  0.00     0.037 A 
HETATM   17  C15 UNL     1       3.299   0.829  -0.476  1.00  0.00     0.079 A 
HETATM   18  C16 UNL     1       3.774   2.086  -1.092  1.00  0.00     0.053 C 
HETATM   19  N3  UNL     1       2.073   0.365  -0.825  1.00  0.00    -0.066 NA
ENDBRANCH  11  13
TORSDOF 1
