REMARK  3 active torsions:
REMARK  status: ('A' for Active; 'I' for Inactive)
REMARK    1  A    between atoms: C2_2  and  C3_3 
REMARK    2  A    between atoms: C3_3  and  C4_4 
REMARK    3  A    between atoms: C4_4  and  N2_7 
ROOT
HETATM    1  N2  UNL     1       2.573  -0.388   0.030  1.00  0.00    -0.264 N 
HETATM    2  C5  UNL     1       2.506  -1.861   0.106  1.00  0.00     0.144 C 
HETATM    3  C6  UNL     1       1.298  -2.326   0.849  1.00  0.00     0.167 C 
HETATM    4  O2  UNL     1       0.277  -2.776   0.014  1.00  0.00    -0.351 OA
HETATM    5  C7  UNL     1      -0.835  -3.038   0.822  1.00  0.00     0.159 C 
HETATM    6  C8  UNL     1      -2.063  -3.347  -0.006  1.00  0.00     0.155 C 
HETATM    7  S1  UNL     1      -3.158  -1.955  -0.013  1.00  0.00     0.177 S 
HETATM    8  O3  UNL     1      -4.532  -2.396  -0.406  1.00  0.00    -0.226 OA
HETATM    9  O4  UNL     1      -3.263  -1.360   1.374  1.00  0.00    -0.226 OA
HETATM   10  C9  UNL     1      -2.563  -0.774  -1.189  1.00  0.00     0.149 C 
HETATM   11  C10 UNL     1      -2.694   0.626  -0.689  1.00  0.00    -0.008 A 
HETATM   12  C11 UNL     1      -3.781   1.414  -1.037  1.00  0.00    -0.003 A 
HETATM   13  C12 UNL     1      -3.920   2.710  -0.585  1.00  0.00     0.011 A 
HETATM   14  C13 UNL     1      -2.966   3.270   0.241  1.00  0.00     0.058 A 
HETATM   15 CL1  UNL     1      -3.162   4.919   0.804  1.00  0.00    -0.082 Cl
HETATM   16  C14 UNL     1      -1.884   2.489   0.590  1.00  0.00     0.009 A 
HETATM   17  C15 UNL     1      -1.741   1.184   0.136  1.00  0.00     0.000 A 
HETATM   18  C16 UNL     1      -0.559   0.347   0.524  1.00  0.00     0.157 C 
HETATM   19  N3  UNL     1       0.243   0.199  -0.673  1.00  0.00    -0.214 NA
HETATM   20  C17 UNL     1       1.651   0.351  -0.759  1.00  0.00     0.347 C 
HETATM   21  O5  UNL     1       2.169   1.194  -1.588  1.00  0.00    -0.245 OA
ENDROOT
BRANCH   1  22
HETATM   22  C4  UNL     1       3.595   0.236   0.788  1.00  0.00     0.153 C 
HETATM   23  N1  UNL     1       3.821   1.482   0.913  1.00  0.00    -0.083 NA
HETATM   24  O1  UNL     1       3.121   2.496   0.358  1.00  0.00    -0.059 OA
BRANCH  22  25
HETATM   25  C3  UNL     1       4.590  -0.623   1.559  1.00  0.00     0.067 C 
BRANCH  25  26
HETATM   26  C2  UNL     1       5.286  -1.483   0.501  1.00  0.00     0.008 C 
HETATM   27  C1  UNL     1       5.992  -0.590  -0.509  1.00  0.00     0.001 C 
ENDBRANCH  25  26
ENDBRANCH  22  25
ENDBRANCH   1  22
TORSDOF 3
