REMARK  4 active torsions:
REMARK  status: ('A' for Active; 'I' for Inactive)
REMARK    1  A    between atoms: O1_2  and  C2_3 
REMARK    2  A    between atoms: C10_13  and  N3_14 
REMARK    3  A    between atoms: C10_13  and  C17_22 
REMARK    4  A    between atoms: N3_14  and  C11_15 
ROOT
HETATM    1  C2  UNL     1      -0.816  -0.717   1.679  1.00  0.00     0.097 A 
HETATM    2  C3  UNL     1      -1.504  -1.818   2.130  1.00  0.00     0.026 A 
HETATM    3  C4  UNL     1      -2.282  -2.532   1.257  1.00  0.00     0.023 A 
HETATM    4  C5  UNL     1      -2.376  -2.150  -0.064  1.00  0.00     0.101 A 
HETATM    5  N1  UNL     1      -3.071  -2.685  -1.110  1.00  0.00    -0.229 NA
HETATM    6  C6  UNL     1      -2.790  -1.904  -2.160  1.00  0.00     0.140 A 
HETATM    7  C7  UNL     1      -3.286  -2.032  -3.566  1.00  0.00     0.074 C 
HETATM    8  N2  UNL     1      -1.952  -0.917  -1.792  1.00  0.00    -0.229 NA
HETATM    9  C8  UNL     1      -1.680  -1.054  -0.478  1.00  0.00     0.104 A 
HETATM   10  C9  UNL     1      -0.875  -0.287   0.351  1.00  0.00     0.059 A 
HETATM   11  C10 UNL     1      -0.183   0.851  -0.182  1.00  0.00     0.085 C 
ENDROOT
BRANCH  11  12
HETATM   12  N3  UNL     1       0.859   0.678  -1.101  1.00  0.00    -0.245 NA
BRANCH  12  13
HETATM   13  C11 UNL     1       2.066   0.003  -0.974  1.00  0.00     0.081 A 
HETATM   14  C12 UNL     1       2.403  -0.634   0.193  1.00  0.00     0.020 A 
HETATM   15  C13 UNL     1       3.603  -1.315   0.342  1.00  0.00     0.013 A 
HETATM   16  C14 UNL     1       4.475  -1.338  -0.741  1.00  0.00     0.058 A 
HETATM   17 CL1  UNL     1       5.991  -2.205  -0.534  1.00  0.00    -0.082 Cl
HETATM   18  C15 UNL     1       4.172  -0.716  -1.914  1.00  0.00     0.013 A 
HETATM   19  C16 UNL     1       2.962  -0.050  -2.012  1.00  0.00     0.020 A 
ENDBRANCH  12  13
ENDBRANCH  11  12
BRANCH  11  20
HETATM   20  C17 UNL     1      -0.580   2.182   0.205  1.00  0.00     0.018 A 
HETATM   21  C18 UNL     1      -0.835   2.603   1.498  1.00  0.00     0.002 A 
HETATM   22  C19 UNL     1      -1.211   3.907   1.747  1.00  0.00     0.000 A 
HETATM   23  C20 UNL     1      -1.349   4.842   0.741  1.00  0.00     0.000 A 
HETATM   24  C21 UNL     1      -1.097   4.429  -0.549  1.00  0.00     0.000 A 
HETATM   25  C22 UNL     1      -0.728   3.144  -0.789  1.00  0.00     0.002 A 
ENDBRANCH  11  20
BRANCH   1  26
HETATM   26  O1  UNL     1      -0.005   0.055   2.513  1.00  0.00    -0.328 OA
HETATM   27  C1  UNL     1       0.089  -0.338   3.869  1.00  0.00     0.181 C 
ENDBRANCH   1  26
TORSDOF 4
