REMARK  6 active torsions:
REMARK  status: ('A' for Active; 'I' for Inactive)
REMARK    1  A    between atoms: C2_2  and  N1_3 
REMARK    2  A    between atoms: N1_3  and  C3_4 
REMARK    3  A    between atoms: N1_3  and  S1_6 
REMARK    4  A    between atoms: S1_6  and  C5_9 
REMARK    5  A    between atoms: C10_15  and  N2_16 
REMARK       I    between atoms: N3_19  and  C15_22 
REMARK    6  A    between atoms: C15_22  and  C16_24 
ROOT
HETATM    1  C5  UNL     1      -2.543  -0.130  -0.243  1.00  0.00     0.114 A 
HETATM    2  C6  UNL     1      -3.580   0.016  -1.172  1.00  0.00     0.015 A 
HETATM    3  C7  UNL     1      -3.332  -0.231  -2.505  1.00  0.00     0.012 A 
HETATM    4  C8  UNL     1      -2.094  -0.620  -2.972  1.00  0.00     0.059 A 
HETATM    5 CL1  UNL     1      -1.818  -0.926  -4.690  1.00  0.00    -0.082 Cl
HETATM    6  C9  UNL     1      -1.081  -0.761  -2.050  1.00  0.00     0.029 A 
HETATM    7  C10 UNL     1      -1.307  -0.516  -0.688  1.00  0.00     0.069 A 
ENDROOT
BRANCH   7   8
HETATM    8  N2  UNL     1      -0.252  -0.667   0.250  1.00  0.00    -0.344 N 
HETATM    9  C11 UNL     1       0.280   0.390   1.049  1.00  0.00     0.126 C 
HETATM   10  C12 UNL     1       1.785   0.505   0.942  1.00  0.00     0.128 C 
HETATM   11  N3  UNL     1       2.399  -0.765   0.621  1.00  0.00    -0.316 N 
HETATM   12  C13 UNL     1       1.692  -1.965   1.021  1.00  0.00     0.128 C 
HETATM   13  C15 UNL     1       3.641  -0.840  -0.057  1.00  0.00     0.233 C 
HETATM   14  C14 UNL     1       0.314  -1.998   0.391  1.00  0.00     0.126 C 
HETATM   15  O3  UNL     1       4.126  -1.978  -0.309  1.00  0.00    -0.272 OA
BRANCH  13  16
HETATM   16  C16 UNL     1       4.405   0.345  -0.488  1.00  0.00     0.079 C 
HETATM   17  C17 UNL     1       4.741   1.169   0.731  1.00  0.00     0.009 C 
HETATM   18  C18 UNL     1       6.188   1.553   0.802  1.00  0.00     0.001 C 
HETATM   19  C19 UNL     1       6.719   2.110  -0.495  1.00  0.00     0.000 C 
HETATM   20  C20 UNL     1       6.431   1.164  -1.644  1.00  0.00     0.001 C 
HETATM   21  C21 UNL     1       5.685  -0.053  -1.188  1.00  0.00     0.009 C 
ENDBRANCH  13  16
ENDBRANCH   7   8
BRANCH   1  22
HETATM   22  S1  UNL     1      -2.852   0.181   1.433  1.00  0.00     0.248 S 
HETATM   23  O1  UNL     1      -2.528  -0.970   2.316  1.00  0.00    -0.206 OA
HETATM   24  O2  UNL     1      -2.088   1.384   1.957  1.00  0.00    -0.206 OA
BRANCH  22  25
HETATM   25  N1  UNL     1      -4.535   0.614   1.663  1.00  0.00    -0.177 NA
BRANCH  25  26
HETATM   26  C2  UNL     1      -5.408  -0.452   1.268  1.00  0.00     0.088 C 
HETATM   27  C1  UNL     1      -5.725  -1.409   2.395  1.00  0.00     0.020 C 
ENDBRANCH  25  26
BRANCH  25  28
HETATM   28  C3  UNL     1      -4.772   1.813   0.880  1.00  0.00     0.088 C 
HETATM   29  C4  UNL     1      -4.491   3.037   1.743  1.00  0.00     0.020 C 
ENDBRANCH  25  28
ENDBRANCH  22  25
ENDBRANCH   1  22
TORSDOF 6
