REMARK  1 active torsions:
REMARK  status: ('A' for Active; 'I' for Inactive)
REMARK    1  A    between atoms: C7_8  and  C8_9 
ROOT
HETATM    1  C1  UNL     1       2.983   1.747   0.595  1.00  0.00     0.031 C 
HETATM    2  C2  UNL     1       1.985   0.684   0.303  1.00  0.00    -0.022 A 
HETATM    3  C3  UNL     1       2.370  -0.624   0.082  1.00  0.00    -0.003 A 
HETATM    4  C4  UNL     1       1.454  -1.622  -0.190  1.00  0.00     0.019 A 
HETATM    5  C5  UNL     1       0.098  -1.348  -0.253  1.00  0.00     0.082 A 
HETATM    6  N1  UNL     1      -1.015  -2.057  -0.487  1.00  0.00    -0.244 NA
HETATM    7  C6  UNL     1      -2.098  -1.261  -0.425  1.00  0.00     0.102 A 
HETATM    8  C7  UNL     1      -1.661   0.014  -0.140  1.00  0.00     0.063 A 
HETATM    9  C9  UNL     1      -0.302  -0.050  -0.036  1.00  0.00     0.022 A 
HETATM   10  C10 UNL     1       0.633   0.955   0.240  1.00  0.00    -0.003 A 
ENDROOT
BRANCH   8  11
HETATM   11  C8  UNL     1      -2.486   1.228   0.026  1.00  0.00     0.236 C 
HETATM   12  O1  UNL     1      -1.961   2.335   0.285  1.00  0.00    -0.283 OA
ENDBRANCH   8  11
TORSDOF 1
