REMARK  5 active torsions:
REMARK  status: ('A' for Active; 'I' for Inactive)
REMARK    1  A    between atoms: O1_2  and  C2_3 
REMARK    2  A    between atoms: C5_7  and  C6_8 
REMARK    3  A    between atoms: C6_8  and  C7_9 
REMARK    4  A    between atoms: C8_12  and  S2_17 
REMARK    5  A    between atoms: S2_17  and  C10_20 
ROOT
HETATM    1  C2  UNL     1       4.601   0.891  -0.110  1.00  0.00     0.201 A 
HETATM    2  C3  UNL     1       3.797  -0.169   0.245  1.00  0.00     0.072 A 
HETATM    3  C4  UNL     1       2.419  -0.119   0.130  1.00  0.00     0.123 A 
HETATM    4  O2  UNL     1       1.631  -1.190   0.490  1.00  0.00    -0.329 OA
HETATM    5  C5  UNL     1       0.300  -1.374   0.197  1.00  0.00     0.158 C 
HETATM    6  C8  UNL     1      -0.581  -0.176   0.456  1.00  0.00     0.193 C 
HETATM    7  S1  UNL     1       0.127   1.168  -0.530  1.00  0.00    -0.073 SA
HETATM    8  C9  UNL     1       1.884   1.036  -0.356  1.00  0.00     0.152 A 
HETATM    9  N1  UNL     1       2.685   2.047  -0.692  1.00  0.00    -0.138 NA
HETATM   10  N2  UNL     1       4.007   1.995  -0.580  1.00  0.00    -0.122 NA
ENDROOT
BRANCH   6  11
HETATM   11  S2  UNL     1      -2.216  -0.608   0.007  1.00  0.00     0.203 S 
HETATM   12  O5  UNL     1      -2.594  -1.800   0.883  1.00  0.00    -0.221 OA
HETATM   13  O6  UNL     1      -2.260  -1.137  -1.413  1.00  0.00    -0.221 OA
BRANCH  11  14
HETATM   14  C10 UNL     1      -3.409   0.603   0.225  1.00  0.00     0.112 A 
HETATM   15  C11 UNL     1      -4.473   0.442   1.110  1.00  0.00     0.013 A 
HETATM   16  C12 UNL     1      -5.420   1.431   1.283  1.00  0.00     0.001 A 
HETATM   17  C13 UNL     1      -5.326   2.616   0.568  1.00  0.00     0.002 A 
HETATM   18  C14 UNL     1      -4.294   2.793  -0.301  1.00  0.00     0.030 A 
HETATM   19  C15 UNL     1      -3.365   1.787  -0.452  1.00  0.00     0.150 A 
HETATM   20  F1  UNL     1      -2.367   1.995  -1.330  1.00  0.00    -0.203 F 
ENDBRANCH  11  14
ENDBRANCH   6  11
BRANCH   5  21
HETATM   21  C6  UNL     1      -0.236  -2.642   0.749  1.00  0.00     0.130 C 
BRANCH  21  22
HETATM   22  C7  UNL     1       0.535  -3.772   0.164  1.00  0.00     0.188 C 
HETATM   23  O3  UNL     1       1.569  -3.586  -0.741  1.00  0.00    -0.647 OA
HETATM   24  O4  UNL     1       0.232  -4.943   0.508  1.00  0.00    -0.647 OA
ENDBRANCH  21  22
ENDBRANCH   5  21
BRANCH   1  25
HETATM   25  O1  UNL     1       5.985   0.793   0.025  1.00  0.00    -0.311 OA
HETATM   26  C1  UNL     1       6.772   1.918  -0.357  1.00  0.00     0.183 C 
ENDBRANCH   1  25
TORSDOF 5
