REMARK  5 active torsions:
REMARK  status: ('A' for Active; 'I' for Inactive)
REMARK    1  A    between atoms: C2_2  and  C4_4 
REMARK    2  A    between atoms: C7_7  and  N1_10 
REMARK       I    between atoms: N2_13  and  C14_16 
REMARK    3  A    between atoms: C14_16  and  C15_18 
REMARK    4  A    between atoms: C15_18  and  N3_19 
REMARK    5  A    between atoms: C16_21  and  C25_32 
ROOT
HETATM    1  N3  UNL     1      -2.057   0.535  -1.430  1.00  0.00    -0.144 N 
HETATM    2  N4  UNL     1      -2.616  -0.433  -0.620  1.00  0.00    -0.310 NA
HETATM    3  C16 UNL     1      -3.087  -1.461  -0.084  1.00  0.00     0.191 C 
HETATM    4  C17 UNL     1      -2.651  -2.965  -0.126  1.00  0.00     0.216 C 
HETATM    5  O2  UNL     1      -3.070  -3.705   0.818  1.00  0.00    -0.287 OA
HETATM    6  C18 UNL     1      -1.788  -3.494  -1.221  1.00  0.00     0.125 A 
HETATM    7  C19 UNL     1      -1.658  -2.327  -1.553  1.00  0.00    -0.120 A 
HETATM    8  C20 UNL     1      -1.564  -1.351  -1.812  1.00  0.00     0.041 A 
HETATM    9  C21 UNL     1      -0.765  -1.128  -2.922  1.00  0.00     0.062 A 
HETATM   10  C22 UNL     1      -0.497  -2.416  -3.113  1.00  0.00    -0.019 A 
HETATM   11  C23 UNL     1      -0.933  -3.650  -2.357  1.00  0.00     0.046 A 
HETATM   12  C24 UNL     1      -1.118   0.299  -2.637  1.00  0.00     0.289 C 
HETATM   13  O3  UNL     1      -0.719   1.274  -3.285  1.00  0.00    -0.264 OA
ENDROOT
BRANCH   1  14
HETATM   14  C15 UNL     1      -2.340   1.968  -1.211  1.00  0.00     0.176 C 
BRANCH  14  15
HETATM   15  C14 UNL     1      -1.457   2.663  -0.347  1.00  0.00     0.278 C 
HETATM   16  N2  UNL     1      -0.352   2.114   0.316  1.00  0.00    -0.311 N 
HETATM   17  C11 UNL     1       0.508   2.928   1.203  1.00  0.00     0.129 C 
HETATM   18  C12 UNL     1       0.043   0.737   0.202  1.00  0.00     0.129 C 
HETATM   19  C10 UNL     1       1.861   2.995   0.524  1.00  0.00     0.126 C 
HETATM   20  N1  UNL     1       2.312   1.664   0.186  1.00  0.00    -0.344 N 
HETATM   21  C13 UNL     1       1.453   0.617  -0.319  1.00  0.00     0.126 C 
HETATM   22  O1  UNL     1      -1.681   3.907  -0.147  1.00  0.00    -0.266 OA
BRANCH  20  23
HETATM   23  C7  UNL     1       3.686   1.363   0.361  1.00  0.00     0.056 A 
HETATM   24  C6  UNL     1       4.565   2.328   0.847  1.00  0.00     0.017 A 
HETATM   25  C5  UNL     1       5.894   2.033   1.016  1.00  0.00    -0.003 A 
HETATM   26  C4  UNL     1       6.392   0.793   0.714  1.00  0.00    -0.022 A 
HETATM   27  C9  UNL     1       5.526  -0.183   0.227  1.00  0.00    -0.003 A 
HETATM   28  C8  UNL     1       4.196   0.119   0.060  1.00  0.00     0.017 A 
BRANCH  26  29
HETATM   29  C2  UNL     1       7.807   0.424   0.878  1.00  0.00     0.022 C 
HETATM   30  C1  UNL     1       8.211   0.326   2.331  1.00  0.00     0.005 C 
HETATM   31  C3  UNL     1       8.687   1.388   0.124  1.00  0.00     0.005 C 
ENDBRANCH  26  29
ENDBRANCH  20  23
ENDBRANCH  14  15
ENDBRANCH   1  14
BRANCH   3  32
HETATM   32  C25 UNL     1      -4.318  -1.337   0.796  1.00  0.00     0.035 A 
HETATM   33  C26 UNL     1      -4.943  -0.143   1.031  1.00  0.00     0.003 A 
HETATM   34  C27 UNL     1      -6.058  -0.017   1.823  1.00  0.00     0.000 A 
HETATM   35  C28 UNL     1      -6.589  -1.125   2.417  1.00  0.00     0.000 A 
HETATM   36  C29 UNL     1      -6.002  -2.336   2.213  1.00  0.00     0.000 A 
HETATM   37  C30 UNL     1      -4.875  -2.406   1.402  1.00  0.00     0.003 A 
ENDBRANCH   3  32
TORSDOF 5
