REMARK  7 active torsions:
REMARK  status: ('A' for Active; 'I' for Inactive)
REMARK    1  A    between atoms: C6_9  and  C7_10 
REMARK    2  A    between atoms: C10_13  and  N4_16 
REMARK    3  A    between atoms: C16_20  and  N5_22 
REMARK       I    between atoms: N5_22  and  C18_23 
REMARK       I    between atoms: C18_23  and  N6_25 
REMARK    4  A    between atoms: N6_25  and  C19_26 
REMARK    5  A    between atoms: C19_26  and  C20_27 
REMARK    6  A    between atoms: C20_27  and  C21_28 
REMARK    7  A    between atoms: C25_32  and  C27_34 
ROOT
HETATM    1  N4  UNL     1      -1.599   1.557  -0.356  1.00  0.00    -0.346 N 
HETATM    2  C13 UNL     1      -1.306   2.691   0.506  1.00  0.00     0.102 C 
HETATM    3  C14 UNL     1      -0.195   2.113   1.447  1.00  0.00     0.026 C 
HETATM    4  C15 UNL     1      -0.122   0.580   1.194  1.00  0.00     0.029 C 
HETATM    5  C16 UNL     1       0.392   0.346  -0.264  1.00  0.00     0.130 C 
HETATM    6  C17 UNL     1      -0.526   1.145  -1.225  1.00  0.00     0.126 C 
ENDROOT
BRANCH   5   7
HETATM    7  N5  UNL     1       1.715   1.018  -0.204  1.00  0.00    -0.218 NA
HETATM    8  C18 UNL     1       2.583   0.575   0.857  1.00  0.00     0.360 C 
HETATM    9  O1  UNL     1       2.167  -0.340   1.612  1.00  0.00    -0.243 OA
HETATM   10  N6  UNL     1       3.861   1.110   1.094  1.00  0.00    -0.217 NA
BRANCH  10  11
HETATM   11  C19 UNL     1       4.683   0.597   2.171  1.00  0.00     0.135 C 
BRANCH  11  12
HETATM   12  C20 UNL     1       5.016  -0.867   1.927  1.00  0.00     0.053 C 
BRANCH  12  13
HETATM   13  C21 UNL     1       5.722  -0.872   0.615  1.00  0.00    -0.020 A 
HETATM   14  C22 UNL     1       5.043  -1.140  -0.538  1.00  0.00    -0.004 A 
HETATM   15  C23 UNL     1       5.733  -1.096  -1.752  1.00  0.00    -0.000 A 
HETATM   16  C24 UNL     1       7.087  -0.783  -1.767  1.00  0.00     0.004 A 
HETATM   17  C25 UNL     1       7.786  -0.511  -0.620  1.00  0.00     0.071 A 
HETATM   18  C26 UNL     1       7.077  -0.562   0.576  1.00  0.00    -0.000 A 
BRANCH  17  19
HETATM   19  C27 UNL     1       9.212  -0.158  -0.638  1.00  0.00     0.419 C 
HETATM   20  F1  UNL     1       9.919  -1.163  -0.022  1.00  0.00    -0.166 F 
HETATM   21  F2  UNL     1       9.668  -0.047  -1.945  1.00  0.00    -0.166 F 
HETATM   22  F3  UNL     1       9.502   1.026   0.050  1.00  0.00    -0.166 F 
ENDBRANCH  17  19
ENDBRANCH  12  13
ENDBRANCH  11  12
ENDBRANCH  10  11
ENDBRANCH   5   7
BRANCH   1  23
HETATM   23  C10 UNL     1      -2.817   0.898  -0.286  1.00  0.00     0.056 A 
HETATM   24  C9  UNL     1      -3.049  -0.369  -0.839  1.00  0.00     0.017 A 
HETATM   25  C8  UNL     1      -4.203  -1.057  -0.756  1.00  0.00    -0.003 A 
HETATM   26  C7  UNL     1      -5.296  -0.507  -0.079  1.00  0.00    -0.021 A 
HETATM   27  C12 UNL     1      -5.102   0.740   0.476  1.00  0.00    -0.003 A 
HETATM   28  C11 UNL     1      -3.938   1.393   0.373  1.00  0.00     0.017 A 
BRANCH  26  29
HETATM   29  C6  UNL     1      -6.517  -1.297   0.047  1.00  0.00     0.046 C 
HETATM   30  C2  UNL     1      -6.823  -2.046  -1.230  1.00  0.00     0.008 C 
HETATM   31  C1  UNL     1      -6.662  -3.544  -1.043  1.00  0.00     0.001 C 
HETATM   32  C3  UNL     1      -8.287  -1.565  -1.155  1.00  0.00     0.026 C 
HETATM   33  C4  UNL     1      -7.826  -0.651  -0.053  1.00  0.00     0.135 A 
HETATM   34  N1  UNL     1      -8.642  -0.588   1.129  1.00  0.00    -0.095 NA
HETATM   35  C5  UNL     1      -7.975   0.773  -0.238  1.00  0.00     0.160 A 
HETATM   36  N2  UNL     1      -8.713   0.779   0.845  1.00  0.00    -0.168 NA
HETATM   37  N3  UNL     1      -7.571   1.822  -1.149  1.00  0.00    -0.082 NA
ENDBRANCH  26  29
ENDBRANCH   1  23
TORSDOF 7
