REMARK  4 active torsions:
REMARK  status: ('A' for Active; 'I' for Inactive)
REMARK    1  A    between atoms: C2_2  and  C3_3 
REMARK    2  A    between atoms: C6_6  and  C7_7 
REMARK    3  A    between atoms: C7_7  and  N1_8 
REMARK    4  A    between atoms: N2_12  and  N3_17 
ROOT
HETATM    1  N1  UNL     1      -0.214  -1.177  -0.563  1.00  0.00    -0.308 N 
HETATM    2  C8  UNL     1      -1.179  -0.424  -1.339  1.00  0.00     0.133 A 
HETATM    3  C9  UNL     1      -2.300  -0.151  -0.420  1.00  0.00     0.026 A 
HETATM    4  C10 UNL     1      -3.541   0.438  -0.352  1.00  0.00     0.102 A 
HETATM    5  N2  UNL     1      -4.027   0.325   0.902  1.00  0.00    -0.191 N 
HETATM    6  C11 UNL     1      -3.121  -0.334   1.669  1.00  0.00     0.109 A 
HETATM    7  C12 UNL     1      -2.053  -0.627   0.847  1.00  0.00     0.074 A 
HETATM    8  C13 UNL     1      -0.731  -1.278   0.768  1.00  0.00     0.259 A 
HETATM    9  O1  UNL     1      -0.128  -1.842   1.706  1.00  0.00    -0.267 OA
ENDROOT
BRANCH   1  10
HETATM   10  C7  UNL     1       0.998  -1.711  -1.074  1.00  0.00     0.132 C 
BRANCH  10  11
HETATM   11  C6  UNL     1       2.186  -0.874  -1.018  1.00  0.00     0.000 A 
HETATM   12  C5  UNL     1       3.385  -1.521  -1.364  1.00  0.00    -0.003 A 
HETATM   13  C4  UNL     1       4.596  -0.873  -1.370  1.00  0.00    -0.004 A 
HETATM   14  C3  UNL     1       4.672   0.462  -1.031  1.00  0.00    -0.022 A 
HETATM   15  C15 UNL     1       3.498   1.098  -0.693  1.00  0.00    -0.004 A 
HETATM   16  C14 UNL     1       2.266   0.436  -0.686  1.00  0.00    -0.003 A 
BRANCH  14  17
HETATM   17  C2  UNL     1       5.994   1.178  -1.040  1.00  0.00     0.026 C 
HETATM   18  C1  UNL     1       6.644   1.063   0.303  1.00  0.00     0.005 C 
ENDBRANCH  14  17
ENDBRANCH  10  11
ENDBRANCH   1  10
BRANCH   5  19
HETATM   19  N3  UNL     1      -5.243   0.762   1.427  1.00  0.00    -0.031 N 
HETATM   20  O2  UNL     1      -6.304  -0.094   1.475  1.00  0.00    -0.516 OA
HETATM   21  O3  UNL     1      -5.398   1.918   1.855  1.00  0.00    -0.516 OA
ENDBRANCH   5  19
TORSDOF 4
