REMARK  4 active torsions:
REMARK  status: ('A' for Active; 'I' for Inactive)
REMARK    1  A    between atoms: N1_2  and  C3_4 
REMARK    2  A    between atoms: C3_4  and  C4_5 
REMARK       I    between atoms: C4_5  and  N2_7 
REMARK    3  A    between atoms: N2_7  and  C5_8 
REMARK    4  A    between atoms: C8_11  and  C11_14 
ROOT
HETATM    1  C5  UNL     1       0.035  -0.768  -0.469  1.00  0.00     0.084 A 
HETATM    2  C6  UNL     1      -0.954  -1.686  -0.746  1.00  0.00     0.019 A 
HETATM    3  C7  UNL     1      -2.241  -1.417  -0.363  1.00  0.00     0.005 A 
HETATM    4  C8  UNL     1      -2.628  -0.258   0.300  1.00  0.00     0.072 A 
HETATM    5  C9  UNL     1      -1.628   0.639   0.575  1.00  0.00     0.005 A 
HETATM    6  C10 UNL     1      -0.317   0.383   0.191  1.00  0.00     0.019 A 
ENDROOT
BRANCH   1   7
HETATM    7  N2  UNL     1       1.406  -1.073  -0.820  1.00  0.00    -0.210 NA
HETATM    8  C4  UNL     1       2.429  -0.085  -0.638  1.00  0.00     0.290 C 
HETATM    9  O1  UNL     1       2.108   1.026  -0.234  1.00  0.00    -0.268 OA
BRANCH   8  10
HETATM   10  C3  UNL     1       3.860  -0.440  -0.956  1.00  0.00     0.339 C 
BRANCH  10  11
HETATM   11  N1  UNL     1       4.662   0.797  -0.628  1.00  0.00     0.151 N 
HETATM   12  C1  UNL     1       4.553   0.911   0.848  1.00  0.00     0.286 C 
HETATM   13  C2  UNL     1       6.080   0.438  -0.883  1.00  0.00     0.286 C 
ENDBRANCH  10  11
ENDBRANCH   8  10
ENDBRANCH   1   7
BRANCH   4  14
HETATM   14  C11 UNL     1      -4.007  -0.042   0.770  1.00  0.00     0.419 C 
HETATM   15  F1  UNL     1      -4.865  -0.962   0.206  1.00  0.00    -0.166 F 
HETATM   16  F2  UNL     1      -4.065  -0.316   2.196  1.00  0.00    -0.166 F 
HETATM   17  F3  UNL     1      -4.427   1.224   0.651  1.00  0.00    -0.166 F 
ENDBRANCH   4  14
TORSDOF 4
