REMARK  2 active torsions:
REMARK  status: ('A' for Active; 'I' for Inactive)
REMARK    1  A    between atoms: C2_2  and  C4_4 
REMARK    2  A    between atoms: C8_9  and  N2_10 
ROOT
HETATM    1  C4  UNL     1       0.380  -0.394   0.159  1.00  0.00     0.003 A 
HETATM    2  C5  UNL     1       0.293  -1.747   0.287  1.00  0.00     0.018 A 
HETATM    3  C6  UNL     1      -0.916  -2.416   0.241  1.00  0.00     0.099 A 
HETATM    4  N1  UNL     1      -2.019  -1.682   0.058  1.00  0.00    -0.241 NA
HETATM    5  C7  UNL     1      -1.952  -0.319  -0.073  1.00  0.00     0.122 A 
HETATM    6  C8  UNL     1      -0.750   0.347  -0.024  1.00  0.00     0.142 A 
ENDROOT
BRANCH   1   7
HETATM    7  C2  UNL     1       1.735   0.218   0.161  1.00  0.00     0.024 C 
HETATM    8  C1  UNL     1       2.662  -0.749   0.930  1.00  0.00     0.005 C 
HETATM    9  C3  UNL     1       2.207   0.139  -1.348  1.00  0.00     0.005 C 
ENDBRANCH   1   7
BRANCH   6  10
HETATM   10  N2  UNL     1      -0.635   1.766  -0.093  1.00  0.00    -0.113 N 
HETATM   11  O1  UNL     1       0.524   2.313  -0.630  1.00  0.00    -0.532 OA
HETATM   12  O2  UNL     1      -1.528   2.525   0.331  1.00  0.00    -0.532 OA
ENDBRANCH   6  10
TORSDOF 2
