REMARK  7 active torsions:
REMARK  status: ('A' for Active; 'I' for Inactive)
REMARK    1  A    between atoms: C2_2  and  C3_3 
REMARK    2  A    between atoms: C3_3  and  C4_4 
REMARK    3  A    between atoms: C4_4  and  C5_5 
REMARK    4  A    between atoms: C5_5  and  C6_6 
REMARK    5  A    between atoms: C6_6  and  C7_7 
REMARK    6  A    between atoms: C7_7  and  C8_8 
REMARK    7  A    between atoms: N1_15  and  C13_16 
ROOT
HETATM    1  C7  UNL     1       1.039  -0.479  -0.163  1.00  0.00     0.079 C 
HETATM    2  C10 UNL     1       0.960   1.006   0.264  1.00  0.00     0.083 C 
HETATM    3  C11 UNL     1      -0.079   1.142   1.308  1.00  0.00     0.230 C 
HETATM    4  O1  UNL     1       0.141   1.656   2.424  1.00  0.00    -0.286 OA
HETATM    5  C12 UNL     1      -1.411   0.624   0.937  1.00  0.00     0.301 C 
HETATM    6  O2  UNL     1      -2.438   1.078   1.463  1.00  0.00    -0.263 OA
HETATM    7  N1  UNL     1      -1.532  -0.405  -0.029  1.00  0.00    -0.251 N 
HETATM    8  C20 UNL     1      -0.345  -0.910  -0.616  1.00  0.00     0.242 C 
HETATM    9  O3  UNL     1      -0.400  -1.755  -1.557  1.00  0.00    -0.272 OA
ENDROOT
BRANCH   1  10
HETATM   10  C6  UNL     1       1.920  -0.604  -1.317  1.00  0.00     0.009 C 
BRANCH  10  11
HETATM   11  C5  UNL     1       3.310  -0.293  -1.363  1.00  0.00     0.001 C 
BRANCH  11  12
HETATM   12  C4  UNL     1       4.190  -1.098  -0.483  1.00  0.00     0.000 C 
BRANCH  12  13
HETATM   13  C3  UNL     1       5.658  -0.671  -0.624  1.00  0.00     0.000 C 
BRANCH  13  14
HETATM   14  C2  UNL     1       5.780   0.799  -0.239  1.00  0.00     0.000 C 
HETATM   15  C1  UNL     1       7.210   1.215  -0.369  1.00  0.00     0.000 C 
ENDBRANCH  13  14
ENDBRANCH  12  13
ENDBRANCH  11  12
ENDBRANCH  10  11
ENDBRANCH   1  10
BRANCH   1  16
HETATM   16  C8  UNL     1       1.347  -1.264   1.066  1.00  0.00     0.009 C 
HETATM   17  C9  UNL     1       2.631  -0.969   1.717  1.00  0.00     0.001 C 
ENDBRANCH   1  16
BRANCH   7  18
HETATM   18  C13 UNL     1      -2.804  -0.913  -0.402  1.00  0.00     0.025 C 
HETATM   19  C14 UNL     1      -3.306  -0.390  -1.720  1.00  0.00     0.040 C 
HETATM   20  C15 UNL     1      -3.293   1.127  -1.774  1.00  0.00     0.006 C 
HETATM   21  C16 UNL     1      -4.504   1.648  -1.045  1.00  0.00     0.000 C 
HETATM   22  C17 UNL     1      -5.382   0.487  -0.593  1.00  0.00     0.000 C 
HETATM   23  C18 UNL     1      -4.870   0.011   0.722  1.00  0.00     0.006 C 
HETATM   24  C19 UNL     1      -3.822  -1.042   0.662  1.00  0.00     0.040 C 
ENDBRANCH   7  18
TORSDOF 7
