REMARK  5 active torsions:
REMARK  status: ('A' for Active; 'I' for Inactive)
REMARK    1  A    between atoms: N1_2  and  C1_4 
REMARK    2  A    between atoms: C5_9  and  N3_10 
REMARK    3  A    between atoms: N3_10  and  C6_11 
REMARK    4  A    between atoms: C10_15  and  N5_17 
REMARK    5  A    between atoms: N5_17  and  C11_18 
ROOT
HETATM    1  C6  UNL     1      -0.638  -1.700  -0.358  1.00  0.00     0.166 A 
HETATM    2  C7  UNL     1      -0.805  -3.036  -0.743  1.00  0.00     0.039 A 
HETATM    3  C8  UNL     1       0.257  -3.796  -1.112  1.00  0.00     0.006 A 
HETATM    4  C9  UNL     1       1.510  -3.247  -1.106  1.00  0.00     0.039 A 
HETATM    5  C10 UNL     1       1.694  -1.918  -0.725  1.00  0.00     0.164 A 
HETATM    6  N4  UNL     1       0.617  -1.221  -0.374  1.00  0.00    -0.208 NA
ENDROOT
BRANCH   1   7
HETATM    7  N3  UNL     1      -1.744  -0.948   0.016  1.00  0.00    -0.206 NA
BRANCH   7   8
HETATM    8  C5  UNL     1      -1.835   0.386   0.432  1.00  0.00     0.186 A 
HETATM    9  C1  UNL     1      -3.098   0.907   0.757  1.00  0.00     0.162 A 
HETATM   10  C2  UNL     1      -3.267   2.209   1.173  1.00  0.00     0.028 A 
HETATM   11  C3  UNL     1      -2.180   3.045   1.282  1.00  0.00     0.022 A 
HETATM   12  C4  UNL     1      -0.946   2.521   0.960  1.00  0.00     0.101 A 
HETATM   13  N2  UNL     1      -0.817   1.247   0.557  1.00  0.00    -0.224 NA
BRANCH   9  14
HETATM   14  N1  UNL     1      -4.201   0.026   0.638  1.00  0.00    -0.111 N 
HETATM   15  O1  UNL     1      -5.261   0.164   1.476  1.00  0.00    -0.532 OA
HETATM   16  O2  UNL     1      -4.178  -0.853  -0.228  1.00  0.00    -0.532 OA
ENDBRANCH   9  14
ENDBRANCH   7   8
ENDBRANCH   1   7
BRANCH   5  17
HETATM   17  N5  UNL     1       2.986  -1.366  -0.724  1.00  0.00    -0.227 NA
BRANCH  17  18
HETATM   18  C11 UNL     1       3.247  -0.038  -0.351  1.00  0.00     0.083 A 
HETATM   19  C12 UNL     1       2.360   0.898   0.058  1.00  0.00     0.019 A 
HETATM   20  C13 UNL     1       2.704   2.180   0.406  1.00  0.00     0.002 A 
HETATM   21  C14 UNL     1       4.044   2.552   0.339  1.00  0.00     0.000 A 
HETATM   22  C15 UNL     1       4.958   1.627  -0.070  1.00  0.00     0.002 A 
HETATM   23  C16 UNL     1       4.592   0.359  -0.411  1.00  0.00     0.019 A 
ENDBRANCH  17  18
ENDBRANCH   5  17
TORSDOF 5
