REMARK  6 active torsions:
REMARK  status: ('A' for Active; 'I' for Inactive)
REMARK    1  A    between atoms: C9_9  and  N1_10 
REMARK       I    between atoms: N1_10  and  C10_11 
REMARK    2  A    between atoms: C10_11  and  C11_13 
REMARK    3  A    between atoms: C12_14  and  C13_15 
REMARK    4  A    between atoms: C17_19  and  O2_20 
REMARK    5  A    between atoms: O2_20  and  C18_21 
REMARK    6  A    between atoms: C18_21  and  C19_23 
ROOT
HETATM    1  C13 UNL     1       0.406   0.522   1.028  1.00  0.00     0.002 A 
HETATM    2  C14 UNL     1      -0.427   0.227  -0.021  1.00  0.00     0.000 A 
HETATM    3  C15 UNL     1       0.043   0.010  -1.297  1.00  0.00     0.002 A 
HETATM    4  C16 UNL     1       1.400   0.090  -1.537  1.00  0.00     0.025 A 
HETATM    5  C17 UNL     1       2.280   0.382  -0.522  1.00  0.00     0.103 A 
HETATM    6  C25 UNL     1       1.760   0.591   0.737  1.00  0.00     0.025 A 
ENDROOT
BRANCH   1   7
HETATM    7  C12 UNL     1      -0.124   0.741   2.341  1.00  0.00     0.005 C 
HETATM    8  C11 UNL     1      -1.288   0.725   2.802  1.00  0.00     0.062 C 
BRANCH   8   9
HETATM    9  C10 UNL     1      -2.601   0.496   2.295  1.00  0.00     0.279 C 
HETATM   10  N1  UNL     1      -2.978   0.188   0.968  1.00  0.00    -0.208 NA
HETATM   11  O1  UNL     1      -3.599   0.569   3.110  1.00  0.00    -0.265 OA
BRANCH  10  12
HETATM   12  C9  UNL     1      -4.312  -0.026   0.548  1.00  0.00     0.080 A 
HETATM   13  C2  UNL     1      -4.534  -0.319  -0.775  1.00  0.00    -0.008 A 
HETATM   14  C1  UNL     1      -3.440  -0.420  -1.775  1.00  0.00     0.032 C 
HETATM   15  C3  UNL     1      -5.825  -0.531  -1.208  1.00  0.00    -0.025 A 
HETATM   16  C4  UNL     1      -6.122  -0.853  -2.638  1.00  0.00     0.031 C 
HETATM   17  C5  UNL     1      -6.875  -0.451  -0.333  1.00  0.00    -0.009 A 
HETATM   18  C6  UNL     1      -6.671  -0.158   0.999  1.00  0.00    -0.021 A 
HETATM   19  C7  UNL     1      -7.832  -0.080   1.911  1.00  0.00     0.031 C 
HETATM   20  C8  UNL     1      -5.375   0.051   1.412  1.00  0.00     0.015 A 
ENDBRANCH  10  12
ENDBRANCH   8   9
ENDBRANCH   1   7
BRANCH   5  21
HETATM   21  O2  UNL     1       3.667   0.470  -0.739  1.00  0.00    -0.273 OA
BRANCH  21  22
HETATM   22  C18 UNL     1       4.494  -0.629  -0.616  1.00  0.00     0.300 C 
HETATM   23  O3  UNL     1       3.971  -1.726  -0.301  1.00  0.00    -0.259 OA
BRANCH  22  24
HETATM   24  C19 UNL     1       5.950  -0.535  -0.844  1.00  0.00     0.064 A 
HETATM   25  C20 UNL     1       6.532   0.664  -1.189  1.00  0.00     0.005 A 
HETATM   26  C21 UNL     1       7.893   0.798  -1.412  1.00  0.00     0.000 A 
HETATM   27  C22 UNL     1       8.694  -0.326  -1.281  1.00  0.00     0.000 A 
HETATM   28  C23 UNL     1       8.144  -1.526  -0.940  1.00  0.00     0.000 A 
HETATM   29  C24 UNL     1       6.768  -1.625  -0.722  1.00  0.00     0.005 A 
ENDBRANCH  22  24
ENDBRANCH  21  22
ENDBRANCH   5  21
TORSDOF 6
