REMARK  3 active torsions:
REMARK  status: ('A' for Active; 'I' for Inactive)
REMARK    1  A    between atoms: C2_2  and  N1_3 
REMARK    2  A    between atoms: N2_6  and  C20_27 
REMARK    3  A    between atoms: C12_17  and  C13_18 
ROOT
HETATM    1  N1  UNL     1       0.611  -0.057  -0.656  1.00  0.00    -0.345 N 
HETATM    2  C3  UNL     1      -0.692   0.030  -0.123  1.00  0.00     0.126 C 
HETATM    3  C4  UNL     1      -1.770   0.580  -0.980  1.00  0.00     0.126 C 
HETATM    4  N2  UNL     1      -2.927   0.772  -0.127  1.00  0.00    -0.346 N 
HETATM    5  C5  UNL     1      -2.664   1.413   1.170  1.00  0.00     0.103 C 
HETATM    6  C6  UNL     1      -2.930   0.457   2.313  1.00  0.00     0.051 C 
HETATM    7  C7  UNL     1      -2.468  -0.933   2.035  1.00  0.00     0.131 C 
HETATM    8  N3  UNL     1      -1.394  -1.389   2.892  1.00  0.00    -0.233 NA
HETATM    9  C8  UNL     1      -0.216  -0.614   3.119  1.00  0.00     0.300 C 
HETATM   10  O1  UNL     1       0.844  -1.106   3.597  1.00  0.00    -0.263 OA
HETATM   11  C9  UNL     1      -0.262   0.794   2.779  1.00  0.00     0.184 C 
HETATM   12  O2  UNL     1       0.514   1.292   1.786  1.00  0.00    -0.303 OA
HETATM   13  C10 UNL     1       1.702   1.085   1.207  1.00  0.00     0.094 C 
HETATM   14  C11 UNL     1       3.061   1.517   1.740  1.00  0.00     0.060 C 
HETATM   15  C12 UNL     1       1.759   0.439   0.034  1.00  0.00     0.075 C 
ENDROOT
BRANCH  15  16
HETATM   16  C13 UNL     1       3.086   0.234  -0.589  1.00  0.00     0.019 A 
HETATM   17  C14 UNL     1       3.199   0.306  -1.951  1.00  0.00     0.004 A 
HETATM   18  C15 UNL     1       4.418   0.128  -2.542  1.00  0.00     0.026 A 
HETATM   19  C16 UNL     1       5.539  -0.124  -1.785  1.00  0.00     0.119 A 
HETATM   20  O3  UNL     1       6.876  -0.338  -2.174  1.00  0.00    -0.300 OA
HETATM   21  C18 UNL     1       5.437  -0.199  -0.413  1.00  0.00     0.119 A 
HETATM   22  C17 UNL     1       7.649  -0.104  -1.006  1.00  0.00     0.304 C 
HETATM   23  O4  UNL     1       6.727  -0.460   0.036  1.00  0.00    -0.300 OA
HETATM   24  C19 UNL     1       4.201  -0.016   0.158  1.00  0.00     0.028 A 
ENDBRANCH  15  16
BRANCH   1  25
HETATM   25  C2  UNL     1       0.750  -0.691  -1.978  1.00  0.00     0.102 C 
HETATM   26  C1  UNL     1       0.438  -2.170  -1.890  1.00  0.00     0.026 C 
ENDBRANCH   1  25
BRANCH   4  27
HETATM   27  C20 UNL     1      -4.240   0.381  -0.472  1.00  0.00     0.056 A 
HETATM   28  C21 UNL     1      -4.497  -0.265  -1.656  1.00  0.00     0.019 A 
HETATM   29  C22 UNL     1      -5.792  -0.658  -2.011  1.00  0.00     0.029 A 
HETATM   30  C23 UNL     1      -6.864  -0.404  -1.172  1.00  0.00     0.131 A 
HETATM   31  O5  UNL     1      -8.163  -0.774  -1.480  1.00  0.00    -0.190 OA
HETATM   32  C24 UNL     1      -6.605   0.244   0.015  1.00  0.00     0.029 A 
HETATM   33  C25 UNL     1      -5.325   0.631   0.364  1.00  0.00     0.019 A 
ENDBRANCH   4  27
TORSDOF 3
