REMARK  3 active torsions:
REMARK  status: ('A' for Active; 'I' for Inactive)
REMARK    1  A    between atoms: O1_2  and  C2_3 
REMARK    2  A    between atoms: C5_6  and  C8_9 
REMARK    3  A    between atoms: N2_11  and  C11_15 
ROOT
HETATM    1  C8  UNL     1       0.457  -0.609   0.402  1.00  0.00     0.088 A 
HETATM    2  N1  UNL     1      -0.504   0.139   0.012  1.00  0.00    -0.167 NA
HETATM    3  N2  UNL     1      -1.756  -0.330   0.315  1.00  0.00    -0.198 N 
HETATM    4  C9  UNL     1      -1.564  -1.560   1.000  1.00  0.00     0.263 A 
HETATM    5  O2  UNL     1      -2.455  -2.338   1.466  1.00  0.00    -0.270 OA
HETATM    6  C10 UNL     1      -0.125  -1.784   1.080  1.00  0.00     0.137 A 
ENDROOT
BRANCH   1   7
HETATM    7  C5  UNL     1       1.890  -0.313   0.191  1.00  0.00     0.016 A 
HETATM    8  C4  UNL     1       2.294   0.830  -0.465  1.00  0.00     0.003 A 
HETATM    9  C3  UNL     1       3.655   1.083  -0.649  1.00  0.00     0.024 A 
HETATM   10  C2  UNL     1       4.631   0.218  -0.190  1.00  0.00     0.094 A 
HETATM   11  C7  UNL     1       4.217  -0.922   0.465  1.00  0.00     0.024 A 
HETATM   12  C6  UNL     1       2.858  -1.159   0.639  1.00  0.00     0.003 A 
BRANCH  10  13
HETATM   13  O1  UNL     1       5.988   0.490  -0.384  1.00  0.00    -0.328 OA
HETATM   14  C1  UNL     1       6.345   1.680  -1.066  1.00  0.00     0.181 C 
ENDBRANCH  10  13
ENDBRANCH   1   7
BRANCH   3  15
HETATM   15  C11 UNL     1      -3.043   0.220   0.047  1.00  0.00     0.086 A 
HETATM   16  C12 UNL     1      -3.954   0.481   1.061  1.00  0.00     0.019 A 
HETATM   17  C13 UNL     1      -5.187   1.002   0.854  1.00  0.00     0.002 A 
HETATM   18  C14 UNL     1      -5.584   1.296  -0.417  1.00  0.00     0.000 A 
HETATM   19  C15 UNL     1      -4.708   1.054  -1.477  1.00  0.00     0.002 A 
HETATM   20  C16 UNL     1      -3.453   0.521  -1.243  1.00  0.00     0.019 A 
ENDBRANCH   3  15
TORSDOF 3
