REMARK  5 active torsions:
REMARK  status: ('A' for Active; 'I' for Inactive)
REMARK    1  A    between atoms: C2_2  and  O1_5 
REMARK    2  A    between atoms: O1_5  and  C5_6 
REMARK       I    between atoms: C5_6  and  N1_8 
REMARK    3  A    between atoms: N1_8  and  N2_9 
REMARK       I    between atoms: N2_9  and  C6_10 
REMARK    4  A    between atoms: C6_10  and  C7_12 
REMARK    5  A    between atoms: C10_15  and  C12_18 
ROOT
HETATM    1  N2  UNL     1      -0.402  -0.290   1.035  1.00  0.00    -0.101 NA
HETATM    2  C6  UNL     1       0.547  -1.070   0.332  1.00  0.00     0.298 C 
HETATM    3  O3  UNL     1       0.148  -2.125  -0.226  1.00  0.00    -0.264 OA
ENDROOT
BRANCH   2   4
HETATM    4  C7  UNL     1       1.943  -0.679   0.248  1.00  0.00     0.079 A 
HETATM    5  C8  UNL     1       2.833  -1.466  -0.427  1.00  0.00     0.008 A 
HETATM    6  C9  UNL     1       4.154  -1.050  -0.480  1.00  0.00     0.018 A 
HETATM    7  C10 UNL     1       4.561   0.117   0.129  1.00  0.00     0.095 A 
HETATM    8  N3  UNL     1       3.647   0.855   0.780  1.00  0.00    -0.245 NA
HETATM    9  C11 UNL     1       2.355   0.476   0.847  1.00  0.00     0.103 A 
BRANCH   7  10
HETATM   10  C12 UNL     1       5.983   0.545   0.060  1.00  0.00     0.239 C 
HETATM   11  F1  UNL     1       6.213   1.341  -1.045  1.00  0.00    -0.228 F 
ENDBRANCH   7  10
ENDBRANCH   2   4
BRANCH   1  12
HETATM   12  N1  UNL     1      -1.741  -0.585   1.166  1.00  0.00    -0.080 NA
HETATM   13  C5  UNL     1      -2.688   0.112   0.366  1.00  0.00     0.406 C 
HETATM   14  O2  UNL     1      -2.356   0.998  -0.466  1.00  0.00    -0.234 OA
BRANCH  13  15
HETATM   15  O1  UNL     1      -4.065  -0.147   0.454  1.00  0.00    -0.287 OA
BRANCH  15  16
HETATM   16  C2  UNL     1      -4.997   0.553  -0.348  1.00  0.00     0.103 C 
HETATM   17  C1  UNL     1      -4.755   0.356  -1.823  1.00  0.00     0.030 C 
HETATM   18  C3  UNL     1      -6.368   0.023   0.014  1.00  0.00     0.030 C 
HETATM   19  C4  UNL     1      -5.012   2.039  -0.062  1.00  0.00     0.030 C 
ENDBRANCH  15  16
ENDBRANCH  13  15
ENDBRANCH   1  12
TORSDOF 5
