REMARK  7 active torsions:
REMARK  status: ('A' for Active; 'I' for Inactive)
REMARK    1  A    between atoms: S1_2  and  N2_5 
REMARK    2  A    between atoms: N2_5  and  C1_6 
REMARK    3  A    between atoms: C5_10  and  C7_12 
REMARK       I    between atoms: N3_15  and  C12_18 
REMARK    4  A    between atoms: C12_18  and  C13_20 
REMARK    5  A    between atoms: C13_20  and  S2_21 
REMARK    6  A    between atoms: S2_21  and  C14_22 
REMARK    7  A    between atoms: C14_22  and  C15_23 
ROOT
HETATM    1  C7  UNL     1      -2.303   0.887  -0.160  1.00  0.00    -0.040 C 
HETATM    2  C8  UNL     1      -1.901   0.630   1.216  1.00  0.00     0.046 C 
HETATM    3  C9  UNL     1      -0.609   1.220   1.682  1.00  0.00     0.108 C 
HETATM    4  N3  UNL     1       0.140   1.870   0.664  1.00  0.00    -0.319 N 
HETATM    5  C10 UNL     1      -0.561   2.718  -0.265  1.00  0.00     0.108 C 
HETATM    6  C11 UNL     1      -1.462   1.736  -1.030  1.00  0.00     0.046 C 
HETATM    7  C12 UNL     1       1.516   1.693   0.541  1.00  0.00     0.245 C 
HETATM    8  O3  UNL     1       2.153   2.315  -0.361  1.00  0.00    -0.271 OA
ENDROOT
BRANCH   7   9
HETATM    9  C13 UNL     1       2.217   0.774   1.476  1.00  0.00     0.145 C 
BRANCH   9  10
HETATM   10  S2  UNL     1       1.633  -0.905   0.961  1.00  0.00    -0.124 SA
BRANCH  10  11
HETATM   11  C14 UNL     1       2.331  -1.124  -0.726  1.00  0.00     0.105 C 
BRANCH  11  12
HETATM   12  C15 UNL     1       3.812  -1.191  -0.546  1.00  0.00     0.089 A 
HETATM   13  C16 UNL     1       4.360  -2.430  -0.405  1.00  0.00     0.115 A 
HETATM   14  N4  UNL     1       5.682  -2.626  -0.212  1.00  0.00    -0.241 NA
HETATM   15  C17 UNL     1       6.454  -1.508  -0.164  1.00  0.00     0.099 A 
HETATM   16  C18 UNL     1       7.814  -1.688   0.027  1.00  0.00     0.021 A 
HETATM   17  C22 UNL     1       5.951  -0.241  -0.300  1.00  0.00     0.099 A 
HETATM   18  C19 UNL     1       8.646  -0.586   0.078  1.00  0.00     0.002 A 
HETATM   19  C20 UNL     1       8.171   0.687  -0.053  1.00  0.00     0.002 A 
HETATM   20  C21 UNL     1       6.805   0.826  -0.242  1.00  0.00     0.021 A 
HETATM   21  N5  UNL     1       4.611  -0.110  -0.492  1.00  0.00    -0.246 NA
ENDBRANCH  11  12
ENDBRANCH  10  11
ENDBRANCH   9  10
ENDBRANCH   7   9
BRANCH   1  22
HETATM   22  C5  UNL     1      -3.749   1.024  -0.417  1.00  0.00    -0.006 A 
HETATM   23  C4  UNL     1      -4.239   2.302  -0.715  1.00  0.00    -0.001 A 
HETATM   24  C3  UNL     1      -5.579   2.496  -0.985  1.00  0.00     0.002 A 
HETATM   25  C2  UNL     1      -6.482   1.464  -0.976  1.00  0.00     0.020 A 
HETATM   26  C1  UNL     1      -5.987   0.184  -0.678  1.00  0.00     0.095 A 
HETATM   27  C6  UNL     1      -4.645  -0.018  -0.404  1.00  0.00     0.019 A 
BRANCH  26  28
HETATM   28  N2  UNL     1      -6.883  -0.905  -0.665  1.00  0.00    -0.142 NA
BRANCH  28  29
HETATM   29  S1  UNL     1      -6.970  -2.058   0.604  1.00  0.00     0.383 S 
HETATM   30  N1  UNL     1      -5.913  -3.399   0.306  1.00  0.00    -0.026 N 
HETATM   31  O1  UNL     1      -6.616  -1.439   1.952  1.00  0.00    -0.177 OA
HETATM   32  O2  UNL     1      -8.396  -2.599   0.715  1.00  0.00    -0.177 OA
ENDBRANCH  28  29
ENDBRANCH  26  28
ENDBRANCH   1  22
TORSDOF 7
