REMARK  8 active torsions:
REMARK  status: ('A' for Active; 'I' for Inactive)
REMARK    1  A    between atoms: C2_2  and  O1_3 
REMARK    2  A    between atoms: O1_3  and  C3_4 
REMARK    3  A    between atoms: C3_4  and  C4_6 
REMARK    4  A    between atoms: C5_7  and  O3_8 
REMARK    5  A    between atoms: O3_8  and  C6_9 
REMARK    6  A    between atoms: C6_9  and  C7_10 
REMARK    7  A    between atoms: C16_19  and  C17_20 
REMARK    8  A    between atoms: C17_20  and  C18_22 
REMARK       I    between atoms: C18_22  and  N1_24 
ROOT
HETATM    1  C4  UNL     1       0.220  -0.337   0.901  1.00  0.00     0.089 A 
HETATM    2  C5  UNL     1       1.500   0.093   1.206  1.00  0.00     0.100 A 
HETATM    3  C13 UNL     1       1.786   1.431   1.096  1.00  0.00     0.024 A 
HETATM    4  C14 UNL     1       0.831   2.321   0.695  1.00  0.00     0.002 A 
HETATM    5  C15 UNL     1      -0.435   1.875   0.397  1.00  0.00     0.004 A 
HETATM    6  C16 UNL     1      -0.773   0.545   0.491  1.00  0.00     0.051 A 
ENDROOT
BRANCH   6   7
HETATM    7  C17 UNL     1      -2.122   0.074   0.173  1.00  0.00     0.251 C 
HETATM    8  O4  UNL     1      -2.458  -1.125   0.249  1.00  0.00    -0.281 OA
BRANCH   7   9
HETATM    9  C18 UNL     1      -3.116   1.058  -0.253  1.00  0.00     0.296 C 
HETATM   10  O5  UNL     1      -2.785   2.291  -0.336  1.00  0.00    -0.264 OA
HETATM   11  N1  UNL     1      -4.438   0.721  -0.582  1.00  0.00    -0.314 N 
HETATM   12  C19 UNL     1      -5.474   1.614  -1.007  1.00  0.00     0.105 C 
HETATM   13  C22 UNL     1      -4.996  -0.603  -0.551  1.00  0.00     0.105 C 
HETATM   14  C20 UNL     1      -6.685   1.089  -0.261  1.00  0.00     0.026 C 
HETATM   15  C21 UNL     1      -6.359  -0.349   0.087  1.00  0.00     0.026 C 
ENDBRANCH   7   9
ENDBRANCH   6   7
BRANCH   1  16
HETATM   16  C3  UNL     1      -0.102  -1.735   1.009  1.00  0.00     0.298 C 
HETATM   17  O2  UNL     1      -0.538  -2.187   2.092  1.00  0.00    -0.259 OA
BRANCH  16  18
HETATM   18  O1  UNL     1       0.056  -2.601  -0.054  1.00  0.00    -0.298 OA
BRANCH  18  19
HETATM   19  C2  UNL     1      -0.230  -3.969  -0.036  1.00  0.00     0.152 C 
HETATM   20  C1  UNL     1      -1.671  -4.271   0.279  1.00  0.00     0.035 C 
ENDBRANCH  18  19
ENDBRANCH  16  18
ENDBRANCH   1  16
BRANCH   2  21
HETATM   21  O3  UNL     1       2.489  -0.797   1.616  1.00  0.00    -0.326 OA
BRANCH  21  22
HETATM   22  C6  UNL     1       3.786  -0.398   1.929  1.00  0.00     0.175 C 
BRANCH  22  23
HETATM   23  C7  UNL     1       4.512   0.253   0.810  1.00  0.00     0.008 A 
HETATM   24  C8  UNL     1       3.995   0.408  -0.447  1.00  0.00    -0.002 A 
HETATM   25  C9  UNL     1       4.726   1.023  -1.439  1.00  0.00    -0.000 A 
HETATM   26  C10 UNL     1       5.998   1.508  -1.223  1.00  0.00    -0.000 A 
HETATM   27  C11 UNL     1       6.503   1.340   0.058  1.00  0.00    -0.000 A 
HETATM   28  C12 UNL     1       5.781   0.727   1.056  1.00  0.00    -0.002 A 
ENDBRANCH  22  23
ENDBRANCH  21  22
ENDBRANCH   2  21
TORSDOF 8
