REMARK  7 active torsions:
REMARK  status: ('A' for Active; 'I' for Inactive)
REMARK    1  A    between atoms: C4_4  and  C18_26 
REMARK    2  A    between atoms: C7_7  and  C8_8 
REMARK       I    between atoms: C8_8  and  N1_10 
REMARK    3  A    between atoms: N1_10  and  C9_11 
REMARK    4  A    between atoms: C13_15  and  S1_17 
REMARK    5  A    between atoms: S1_17  and  N3_20 
REMARK    6  A    between atoms: C22_30  and  C29_42 
REMARK    7  A    between atoms: N4_31  and  C27_37 
ROOT
HETATM    1  C1  UNL     1       2.181  -0.073   1.436  1.00  0.00     0.031 C 
HETATM    2  C2  UNL     1       1.100  -0.821   0.745  1.00  0.00    -0.018 A 
HETATM    3  C3  UNL     1      -0.236  -0.616   0.982  1.00  0.00    -0.008 A 
HETATM    4  C4  UNL     1      -1.230  -1.316   0.335  1.00  0.00    -0.023 A 
HETATM    5  C5  UNL     1      -0.831  -2.256  -0.584  1.00  0.00    -0.004 A 
HETATM    6  C6  UNL     1       0.504  -2.479  -0.838  1.00  0.00     0.004 A 
HETATM    7  C7  UNL     1       1.486  -1.783  -0.194  1.00  0.00     0.054 A 
ENDROOT
BRANCH   4   8
HETATM    8  C18 UNL     1      -2.631  -0.997   0.684  1.00  0.00     0.026 A 
HETATM    9  C19 UNL     1      -3.646  -2.177   0.524  1.00  0.00     0.005 C 
HETATM   10  C20 UNL     1      -3.950  -1.530  -0.889  1.00  0.00     0.007 C 
HETATM   11  C21 UNL     1      -5.557  -1.324  -0.976  1.00  0.00     0.044 C 
HETATM   12  C26 UNL     1      -3.541  -0.370  -0.306  1.00  0.00     0.012 A 
HETATM   13  C22 UNL     1      -5.943  -0.113  -0.216  1.00  0.00     0.055 C 
HETATM   14  N4  UNL     1      -5.534   1.200  -0.514  1.00  0.00    -0.156 N 
HETATM   15  C23 UNL     1      -4.797   2.345   0.118  1.00  0.00     0.189 C 
HETATM   16  C24 UNL     1      -3.467   1.827   0.657  1.00  0.00     0.174 C 
HETATM   17  O5  UNL     1      -2.664   2.582   1.065  1.00  0.00    -0.294 OA
HETATM   18  C25 UNL     1      -2.949   0.374   0.770  1.00  0.00     0.064 A 
BRANCH  13  19
HETATM   19  C29 UNL     1      -7.202  -0.190   0.511  1.00  0.00     0.012 A 
HETATM   20  C30 UNL     1      -7.403   0.666   1.575  1.00  0.00     0.001 A 
HETATM   21  C31 UNL     1      -8.538   0.689   2.331  1.00  0.00     0.000 A 
HETATM   22  C32 UNL     1      -9.559  -0.187   2.033  1.00  0.00     0.000 A 
HETATM   23  C33 UNL     1      -9.398  -1.055   0.982  1.00  0.00     0.000 A 
HETATM   24  C34 UNL     1      -8.238  -1.065   0.224  1.00  0.00     0.001 A 
ENDBRANCH  13  19
BRANCH  14  25
HETATM   25  C27 UNL     1      -5.921   1.605  -1.812  1.00  0.00     0.755 A 
HETATM   26  N5  UNL     1      -5.697   2.780  -2.414  1.00  0.00    -0.029 NA
HETATM   27  C28 UNL     1      -6.225   2.785  -3.659  1.00  0.00     0.269 A 
HETATM   28  O6  UNL     1      -6.774   1.592  -3.801  1.00  0.00    -0.173 OA
HETATM   29  N6  UNL     1      -6.613   0.880  -2.738  1.00  0.00     0.071 NA
ENDBRANCH  14  25
ENDBRANCH   4   8
BRANCH   7  30
HETATM   30  C8  UNL     1       2.902  -1.999  -0.443  1.00  0.00     0.280 C 
HETATM   31  O1  UNL     1       3.253  -2.855  -1.281  1.00  0.00    -0.265 OA
HETATM   32  N1  UNL     1       3.889  -1.261   0.242  1.00  0.00    -0.189 NA
BRANCH  32  33
HETATM   33  C9  UNL     1       5.257  -1.526  -0.053  1.00  0.00     0.166 A 
HETATM   34  C10 UNL     1       5.627  -2.472  -0.979  1.00  0.00     0.039 A 
HETATM   35  C11 UNL     1       6.957  -2.687  -1.225  1.00  0.00     0.005 A 
HETATM   36  C12 UNL     1       7.882  -1.945  -0.533  1.00  0.00     0.032 A 
HETATM   37  C13 UNL     1       7.514  -0.994   0.398  1.00  0.00     0.181 A 
HETATM   38  N2  UNL     1       6.187  -0.825   0.598  1.00  0.00    -0.214 NA
BRANCH  37  39
HETATM   39  S1  UNL     1       8.669  -0.038   1.290  1.00  0.00     0.264 S 
HETATM   40  O2  UNL     1      10.041  -0.424   0.826  1.00  0.00    -0.204 OA
HETATM   41  O3  UNL     1       8.526  -0.305   2.766  1.00  0.00    -0.204 OA
BRANCH  39  42
HETATM   42  N3  UNL     1       8.454   1.662   0.990  1.00  0.00    -0.171 NA
HETATM   43  C14 UNL     1       7.104   2.011   1.451  1.00  0.00     0.120 C 
HETATM   44  C15 UNL     1       6.857   3.492   1.261  1.00  0.00     0.161 C 
HETATM   45  O4  UNL     1       7.755   4.019   0.348  1.00  0.00    -0.351 OA
HETATM   46  C16 UNL     1       7.900   3.252  -0.791  1.00  0.00     0.161 C 
HETATM   47  C17 UNL     1       8.495   1.925  -0.418  1.00  0.00     0.120 C 
ENDBRANCH  39  42
ENDBRANCH  37  39
ENDBRANCH  32  33
ENDBRANCH   7  30
TORSDOF 7
