REMARK  10 active torsions:
REMARK  status: ('A' for Active; 'I' for Inactive)
REMARK    1  A    between atoms: O1_2  and  C2_3 
REMARK    2  A    between atoms: C11_13  and  S1_14 
REMARK    3  A    between atoms: S1_14  and  C12_15 
REMARK    4  A    between atoms: C12_15  and  C13_16 
REMARK    5  A    between atoms: C13_16  and  C14_17 
REMARK    6  A    between atoms: C14_17  and  C15_18 
REMARK       I    between atoms: C15_18  and  N2_20 
REMARK    7  A    between atoms: N2_20  and  C16_21 
REMARK    8  A    between atoms: C16_21  and  C17_22 
REMARK    9  A    between atoms: C18_23  and  C22_30 
REMARK   10  A    between atoms: C20_25  and  C21_26 
ROOT
HETATM    1  C14 UNL     1      -0.236   0.905  -1.242  1.00  0.00     0.090 C 
ENDROOT
BRANCH   1   2
HETATM    2  C13 UNL     1       0.842   0.542  -2.252  1.00  0.00     0.022 C 
BRANCH   2   3
HETATM    3  C12 UNL     1       1.178  -0.906  -2.096  1.00  0.00     0.063 C 
BRANCH   3   4
HETATM    4  S1  UNL     1       1.799  -1.277  -0.455  1.00  0.00    -0.112 SA
BRANCH   4   5
HETATM    5  C11 UNL     1       3.386  -0.471  -0.245  1.00  0.00     0.047 A 
HETATM    6  C2  UNL     1       3.438   0.796   0.288  1.00  0.00     0.099 A 
HETATM    7  C3  UNL     1       4.701   1.369   0.429  1.00  0.00     0.020 A 
HETATM    8  C4  UNL     1       5.867   0.736   0.067  1.00  0.00    -0.022 A 
HETATM    9  C5  UNL     1       7.094   1.534   0.307  1.00  0.00     0.064 C 
HETATM   10  C9  UNL     1       5.808  -0.533  -0.466  1.00  0.00    -0.023 A 
HETATM   11  C6  UNL     1       8.058   0.662   1.089  1.00  0.00     0.295 C 
HETATM   12  N1  UNL     1       8.726  -0.286   0.241  1.00  0.00     0.340 N 
HETATM   13  C7  UNL     1       7.995  -1.540   0.134  1.00  0.00     0.295 C 
HETATM   14  C8  UNL     1       6.920  -1.431  -0.936  1.00  0.00     0.064 C 
HETATM   15  C10 UNL     1       4.567  -1.116  -0.614  1.00  0.00     0.004 A 
BRANCH   6  16
HETATM   16  O1  UNL     1       2.292   1.499   0.679  1.00  0.00    -0.328 OA
HETATM   17  C1  UNL     1       2.447   2.799   1.218  1.00  0.00     0.181 C 
ENDBRANCH   6  16
ENDBRANCH   4   5
ENDBRANCH   3   4
ENDBRANCH   2   3
ENDBRANCH   1   2
BRANCH   1  18
HETATM   18  C15 UNL     1      -1.433   0.068  -1.509  1.00  0.00     0.252 C 
HETATM   19  O2  UNL     1      -1.486  -0.780  -2.429  1.00  0.00    -0.271 OA
HETATM   20  N2  UNL     1      -2.577   0.224  -0.693  1.00  0.00    -0.233 NA
BRANCH  20  21
HETATM   21  C16 UNL     1      -3.781  -0.573  -0.912  1.00  0.00     0.155 C 
BRANCH  21  22
HETATM   22  C17 UNL     1      -4.812  -0.189   0.095  1.00  0.00     0.010 A 
HETATM   23  C18 UNL     1      -6.033   0.306   0.027  1.00  0.00     0.069 A 
HETATM   24  C19 UNL     1      -6.091   0.284   1.480  1.00  0.00     0.007 A 
HETATM   25  C20 UNL     1      -4.869  -0.211   1.546  1.00  0.00     0.069 A 
BRANCH  23  26
HETATM   26  C22 UNL     1      -6.960   0.714  -1.070  1.00  0.00     0.418 C 
HETATM   27  F4  UNL     1      -7.305   2.051  -0.981  1.00  0.00    -0.166 F 
HETATM   28  F5  UNL     1      -8.127  -0.022  -1.057  1.00  0.00    -0.166 F 
HETATM   29  F6  UNL     1      -6.350   0.488  -2.296  1.00  0.00    -0.166 F 
ENDBRANCH  23  26
BRANCH  25  30
HETATM   30  C21 UNL     1      -3.966  -0.612   2.671  1.00  0.00     0.418 C 
HETATM   31  F1  UNL     1      -3.687  -1.961   2.513  1.00  0.00    -0.166 F 
HETATM   32  F2  UNL     1      -2.803   0.122   2.579  1.00  0.00    -0.166 F 
HETATM   33  F3  UNL     1      -4.599  -0.460   3.889  1.00  0.00    -0.166 F 
ENDBRANCH  25  30
ENDBRANCH  21  22
ENDBRANCH  20  21
ENDBRANCH   1  18
TORSDOF 10
