REMARK  3 active torsions:
REMARK  status: ('A' for Active; 'I' for Inactive)
REMARK    1  A    between atoms: C4_5  and  C7_8 
REMARK       I    between atoms: N1_11  and  C12_14 
REMARK    2  A    between atoms: C12_14  and  C13_16 
REMARK    3  A    between atoms: C13_16  and  N2_17 
ROOT
HETATM    1  C7  UNL     1       1.760  -0.051   0.473  1.00  0.00     0.022 C 
HETATM    2  C8  UNL     1       0.817   0.989  -0.084  1.00  0.00     0.028 C 
HETATM    3  C9  UNL     1      -0.277   0.315  -0.920  1.00  0.00     0.104 C 
HETATM    4  N1  UNL     1      -0.898  -0.731  -0.095  1.00  0.00    -0.319 N 
HETATM    5  C10 UNL     1      -0.032  -1.696   0.553  1.00  0.00     0.104 C 
HETATM    6  C11 UNL     1       1.373  -1.447   0.044  1.00  0.00     0.028 C 
HETATM    7  C12 UNL     1      -2.305  -0.802   0.070  1.00  0.00     0.259 C 
HETATM    8  O2  UNL     1      -2.785  -1.714   0.785  1.00  0.00    -0.270 OA
ENDROOT
BRANCH   7   9
HETATM    9  C13 UNL     1      -3.164   0.208  -0.610  1.00  0.00     0.216 C 
BRANCH   9  10
HETATM   10  N2  UNL     1      -4.567  -0.069  -0.292  1.00  0.00    -0.221 N 
HETATM   11  C14 UNL     1      -5.179   0.473   0.774  1.00  0.00     0.198 A 
HETATM   12  N3  UNL     1      -6.453   0.030   0.793  1.00  0.00    -0.201 NA
HETATM   13  C15 UNL     1      -6.569  -0.778  -0.282  1.00  0.00     0.221 A 
HETATM   14  N4  UNL     1      -5.407  -0.840  -0.952  1.00  0.00    -0.145 NA
ENDBRANCH   9  10
ENDBRANCH   7   9
BRANCH   1  15
HETATM   15  C4  UNL     1       3.177   0.261   0.177  1.00  0.00    -0.048 C 
HETATM   16  C3  UNL     1       4.222  -0.592   0.806  1.00  0.00     0.029 C 
HETATM   17  C2  UNL     1       5.263   0.352   1.417  1.00  0.00     0.069 C 
HETATM   18  C1  UNL     1       5.727   1.330   0.409  1.00  0.00     0.155 C 
HETATM   19  O1  UNL     1       6.711   1.994   0.632  1.00  0.00    -0.296 OA
HETATM   20  C6  UNL     1       5.015   1.517  -0.874  1.00  0.00     0.090 C 
HETATM   21  C5  UNL     1       3.572   1.252  -0.614  1.00  0.00    -0.027 C 
ENDBRANCH   1  15
TORSDOF 3
