REMARK  10 active torsions:
REMARK  status: ('A' for Active; 'I' for Inactive)
REMARK    1  A    between atoms: C2_2  and  C3_3 
REMARK    2  A    between atoms: C3_3  and  C4_4 
REMARK    3  A    between atoms: C4_4  and  C5_5 
REMARK    4  A    between atoms: C5_5  and  C6_6 
REMARK    5  A    between atoms: C6_6  and  C7_7 
REMARK    6  A    between atoms: C7_7  and  C8_8 
REMARK    7  A    between atoms: C8_8  and  C9_9 
REMARK       I    between atoms: N1_15  and  C13_16 
REMARK    8  A    between atoms: C13_16  and  C14_18 
REMARK    9  A    between atoms: C14_18  and  S1_19 
REMARK   10  A    between atoms: S1_19  and  C15_20 
ROOT
HETATM    1  C9  UNL     1       1.119  -1.477  -0.919  1.00  0.00     0.211 C 
HETATM    2  O1  UNL     1       0.510  -1.513  -2.244  1.00  0.00    -0.281 OA
HETATM    3  C10 UNL     1      -0.402  -2.555  -2.148  1.00  0.00     0.294 C 
HETATM    4  O2  UNL     1      -0.826  -3.197  -3.130  1.00  0.00    -0.262 OA
HETATM    5  C11 UNL     1      -0.753  -2.734  -0.691  1.00  0.00     0.172 C 
HETATM    6  C12 UNL     1      -2.224  -2.784  -0.461  1.00  0.00     0.035 C 
HETATM    7  N1  UNL     1      -0.106  -1.562  -0.159  1.00  0.00    -0.290 N 
HETATM    8  C13 UNL     1      -0.548  -0.710   0.847  1.00  0.00     0.247 C 
HETATM    9  O3  UNL     1       0.091   0.325   1.238  1.00  0.00    -0.271 OA
ENDROOT
BRANCH   1  10
HETATM   10  C8  UNL     1       1.766  -2.876  -0.833  1.00  0.00     0.054 C 
BRANCH  10  11
HETATM   11  C7  UNL     1       2.486  -3.113   0.446  1.00  0.00     0.005 C 
BRANCH  11  12
HETATM   12  C6  UNL     1       3.610  -2.123   0.584  1.00  0.00     0.000 C 
BRANCH  12  13
HETATM   13  C5  UNL     1       3.053  -0.724   0.569  1.00  0.00     0.000 C 
BRANCH  13  14
HETATM   14  C4  UNL     1       4.194   0.283   0.707  1.00  0.00     0.000 C 
BRANCH  14  15
HETATM   15  C3  UNL     1       3.635   1.677   0.692  1.00  0.00     0.000 C 
BRANCH  15  16
HETATM   16  C2  UNL     1       4.715   2.723   0.827  1.00  0.00     0.000 C 
HETATM   17  C1  UNL     1       4.064   4.082   0.803  1.00  0.00     0.000 C 
ENDBRANCH  15  16
ENDBRANCH  14  15
ENDBRANCH  13  14
ENDBRANCH  12  13
ENDBRANCH  11  12
ENDBRANCH  10  11
ENDBRANCH   1  10
BRANCH   8  18
HETATM   18  C14 UNL     1      -1.838  -0.920   1.590  1.00  0.00     0.150 C 
BRANCH  18  19
HETATM   19  S1  UNL     1      -3.257  -0.228   0.706  1.00  0.00    -0.103 SA
BRANCH  19  20
HETATM   20  C15 UNL     1      -3.206   1.537   0.562  1.00  0.00     0.029 A 
HETATM   21  C16 UNL     1      -4.242   2.183  -0.074  1.00  0.00     0.027 A 
HETATM   22  C17 UNL     1      -4.244   3.561  -0.216  1.00  0.00     0.100 A 
HETATM   23  N2  UNL     1      -3.230   4.260   0.270  1.00  0.00    -0.242 NA
HETATM   24  C18 UNL     1      -2.208   3.628   0.897  1.00  0.00     0.100 A 
HETATM   25  C19 UNL     1      -2.158   2.258   1.065  1.00  0.00     0.027 A 
ENDBRANCH  19  20
ENDBRANCH  18  19
ENDBRANCH   8  18
TORSDOF 10
