REMARK  7 active torsions:
REMARK  status: ('A' for Active; 'I' for Inactive)
REMARK    1  A    between atoms: O1_2  and  C2_3 
REMARK    2  A    between atoms: C5_6  and  C8_9 
REMARK    3  A    between atoms: C10_11  and  C21_29 
REMARK       I    between atoms: N2_13  and  C11_14 
REMARK    4  A    between atoms: C11_14  and  C12_16 
REMARK    5  A    between atoms: C12_16  and  C13_17 
REMARK    6  A    between atoms: C13_17  and  C14_18 
REMARK       I    between atoms: C14_18  and  N3_20 
REMARK    7  A    between atoms: N3_20  and  C15_21 
ROOT
HETATM    1  C8  UNL     1      -2.052  -0.674   0.210  1.00  0.00     0.136 C 
HETATM    2  C9  UNL     1      -3.462  -0.165   0.039  1.00  0.00     0.077 C 
HETATM    3  C10 UNL     1      -3.404   0.587  -1.230  1.00  0.00     0.083 C 
HETATM    4  N1  UNL     1      -2.191   0.857  -1.477  1.00  0.00    -0.171 NA
HETATM    5  N2  UNL     1      -1.313   0.376  -0.504  1.00  0.00    -0.218 N 
HETATM    6  C11 UNL     1       0.021   0.785  -0.229  1.00  0.00     0.254 C 
HETATM    7  O2  UNL     1       0.715   0.287   0.668  1.00  0.00    -0.271 OA
ENDROOT
BRANCH   1   8
HETATM    8  C5  UNL     1      -1.677  -0.644   1.632  1.00  0.00     0.001 A 
HETATM    9  C4  UNL     1      -1.401  -1.836   2.278  1.00  0.00    -0.000 A 
HETATM   10  C3  UNL     1      -1.046  -1.855   3.610  1.00  0.00     0.024 A 
HETATM   11  C2  UNL     1      -0.949  -0.699   4.359  1.00  0.00     0.094 A 
HETATM   12  C7  UNL     1      -1.227   0.487   3.706  1.00  0.00     0.024 A 
HETATM   13  C6  UNL     1      -1.581   0.510   2.379  1.00  0.00    -0.000 A 
BRANCH  11  14
HETATM   14  O1  UNL     1      -0.588  -0.757   5.699  1.00  0.00    -0.328 OA
HETATM   15  C1  UNL     1      -0.486   0.420   6.475  1.00  0.00     0.181 C 
ENDBRANCH  11  14
ENDBRANCH   1   8
BRANCH   6  16
HETATM   16  C12 UNL     1       0.597   1.867  -1.067  1.00  0.00     0.100 C 
BRANCH  16  17
HETATM   17  C13 UNL     1       2.026   2.175  -0.707  1.00  0.00     0.100 C 
BRANCH  17  18
HETATM   18  C14 UNL     1       2.831   0.952  -0.917  1.00  0.00     0.256 C 
HETATM   19  O3  UNL     1       2.325  -0.097  -1.357  1.00  0.00    -0.270 OA
HETATM   20  N3  UNL     1       4.225   0.927  -0.623  1.00  0.00    -0.209 NA
BRANCH  20  21
HETATM   21  C15 UNL     1       5.001  -0.267  -0.831  1.00  0.00     0.112 A 
HETATM   22  C16 UNL     1       4.408  -1.419  -1.327  1.00  0.00     0.024 A 
HETATM   23  C17 UNL     1       5.178  -2.547  -1.517  1.00  0.00     0.031 A 
HETATM   24  C18 UNL     1       6.525  -2.552  -1.223  1.00  0.00     0.142 A 
HETATM   25  F1  UNL     1       7.242  -3.683  -1.426  1.00  0.00    -0.204 F 
HETATM   26  C19 UNL     1       7.077  -1.384  -0.731  1.00  0.00     0.061 A 
HETATM   27  C20 UNL     1       6.344  -0.229  -0.524  1.00  0.00     0.160 A 
HETATM   28  F2  UNL     1       6.954   0.897  -0.032  1.00  0.00    -0.203 F 
ENDBRANCH  20  21
ENDBRANCH  17  18
ENDBRANCH  16  17
ENDBRANCH   6  16
BRANCH   3  29
HETATM   29  C21 UNL     1      -4.574   0.957  -2.065  1.00  0.00     0.043 A 
HETATM   30  C22 UNL     1      -4.431   1.660  -3.236  1.00  0.00     0.004 A 
HETATM   31  C23 UNL     1      -5.528   1.997  -4.002  1.00  0.00     0.000 A 
HETATM   32  C24 UNL     1      -6.806   1.641  -3.621  1.00  0.00     0.002 A 
HETATM   33  C25 UNL     1      -6.939   0.933  -2.441  1.00  0.00     0.030 A 
HETATM   34  C26 UNL     1      -5.835   0.595  -1.672  1.00  0.00     0.141 A 
HETATM   35  F3  UNL     1      -5.977  -0.100  -0.514  1.00  0.00    -0.204 F 
ENDBRANCH   3  29
TORSDOF 7
