REMARK  8 active torsions:
REMARK  status: ('A' for Active; 'I' for Inactive)
REMARK    1  A    between atoms: C8_8  and  C16_18 
REMARK       I    between atoms: C16_18  and  N1_20 
REMARK    2  A    between atoms: N1_20  and  C17_21 
REMARK    3  A    between atoms: C17_21  and  C18_22 
REMARK    4  A    between atoms: C21_25  and  N2_26 
REMARK       I    between atoms: N2_26  and  C22_27 
REMARK    5  A    between atoms: C22_27  and  C23_29 
REMARK    6  A    between atoms: C23_29  and  O5_30 
REMARK    7  A    between atoms: O5_30  and  C24_31 
REMARK    8  A    between atoms: C24_31  and  C25_33 
ROOT
HETATM    1  C16 UNL     1      -0.636   2.027  -0.479  1.00  0.00     0.275 C 
HETATM    2  O3  UNL     1      -0.040   2.725   0.377  1.00  0.00    -0.266 OA
HETATM    3  N1  UNL     1      -0.135   1.901  -1.803  1.00  0.00    -0.229 NA
ENDROOT
BRANCH   1   4
HETATM    4  C8  UNL     1      -1.870   1.348  -0.055  1.00  0.00     0.057 A 
HETATM    5  C7  UNL     1      -2.395   1.618   1.190  1.00  0.00     0.004 A 
HETATM    6  C6  UNL     1      -3.546   0.990   1.597  1.00  0.00    -0.004 A 
HETATM    7  C5  UNL     1      -4.202   0.089   0.792  1.00  0.00    -0.021 A 
HETATM    8  C4  UNL     1      -5.441  -0.474   1.433  1.00  0.00     0.028 C 
HETATM    9  C10 UNL     1      -3.653  -0.166  -0.459  1.00  0.00     0.027 A 
HETATM   10  C2  UNL     1      -6.534  -0.415   0.382  1.00  0.00     0.027 C 
HETATM   11  C1  UNL     1      -6.524   0.946  -0.273  1.00  0.00     0.003 C 
HETATM   12  C3  UNL     1      -7.882  -0.681   1.007  1.00  0.00     0.003 C 
HETATM   13  C14 UNL     1      -6.299  -1.434  -0.701  1.00  0.00     0.096 C 
HETATM   14  C13 UNL     1      -5.472  -2.581  -0.149  1.00  0.00     0.033 C 
HETATM   15  C15 UNL     1      -7.626  -1.918  -1.269  1.00  0.00     0.030 C 
HETATM   16  O2  UNL     1      -5.548  -0.877  -1.740  1.00  0.00    -0.334 OA
HETATM   17  C12 UNL     1      -4.185  -2.538  -0.941  1.00  0.00     0.066 C 
HETATM   18  C11 UNL     1      -4.214  -1.107  -1.461  1.00  0.00     0.238 C 
HETATM   19  O1  UNL     1      -3.450  -1.015  -2.616  1.00  0.00    -0.191 OA
HETATM   20  C9  UNL     1      -2.501   0.455  -0.879  1.00  0.00     0.005 A 
ENDBRANCH   1   4
BRANCH   3  21
HETATM   21  C17 UNL     1       1.106   2.637  -2.077  1.00  0.00     0.155 C 
BRANCH  21  22
HETATM   22  C18 UNL     1       2.213   1.853  -1.453  1.00  0.00     0.002 A 
HETATM   23  C19 UNL     1       2.008   0.603  -0.909  1.00  0.00    -0.001 A 
HETATM   24  C20 UNL     1       3.039  -0.118  -0.333  1.00  0.00     0.019 A 
HETATM   25  C21 UNL     1       4.322   0.384  -0.276  1.00  0.00     0.084 A 
HETATM   26  C26 UNL     1       4.536   1.631  -0.817  1.00  0.00     0.019 A 
HETATM   27  C27 UNL     1       3.495   2.359  -1.399  1.00  0.00    -0.001 A 
BRANCH  25  28
HETATM   28  N2  UNL     1       5.406  -0.354   0.314  1.00  0.00    -0.210 NA
HETATM   29  C22 UNL     1       5.213  -1.668   0.829  1.00  0.00     0.286 C 
HETATM   30  O4  UNL     1       4.041  -2.131   0.728  1.00  0.00    -0.267 OA
BRANCH  29  31
HETATM   31  C23 UNL     1       6.282  -2.488   1.451  1.00  0.00     0.241 C 
BRANCH  31  32
HETATM   32  O5  UNL     1       7.513  -1.839   1.508  1.00  0.00    -0.290 OA
BRANCH  32  33
HETATM   33  C24 UNL     1       7.777  -0.660   2.154  1.00  0.00     0.289 C 
HETATM   34  O6  UNL     1       6.828  -0.095   2.756  1.00  0.00    -0.263 OA
BRANCH  33  35
HETATM   35  C25 UNL     1       9.144  -0.029   2.165  1.00  0.00     0.190 C 
HETATM   36 CL1  UNL     1       9.228   1.024   0.735  1.00  0.00    -0.103 Cl
ENDBRANCH  33  35
ENDBRANCH  32  33
ENDBRANCH  31  32
ENDBRANCH  29  31
ENDBRANCH  25  28
ENDBRANCH  21  22
ENDBRANCH   3  21
TORSDOF 8
