REMARK  7 active torsions:
REMARK  status: ('A' for Active; 'I' for Inactive)
REMARK    1  A    between atoms: N1_2  and  C3_4 
REMARK    2  A    between atoms: C3_4  and  C4_5 
REMARK    3  A    between atoms: C8_10  and  C12_15 
REMARK    4  A    between atoms: C15_18  and  O2_19 
REMARK    5  A    between atoms: O2_19  and  C16_20 
REMARK    6  A    between atoms: C16_20  and  C18_22 
REMARK    7  A    between atoms: C18_22  and  N3_23 
ROOT
HETATM    1  C12 UNL     1       0.225   0.184   0.061  1.00  0.00     0.000 A 
HETATM    2  C13 UNL     1       1.033   1.255   0.359  1.00  0.00     0.002 A 
HETATM    3  C14 UNL     1       2.256   1.351  -0.254  1.00  0.00     0.024 A 
HETATM    4  C15 UNL     1       2.717   0.420  -1.161  1.00  0.00     0.094 A 
HETATM    5  C22 UNL     1       1.886  -0.645  -1.442  1.00  0.00     0.024 A 
HETATM    6  C23 UNL     1       0.662  -0.757  -0.839  1.00  0.00     0.002 A 
ENDROOT
BRANCH   1   7
HETATM    7  C8  UNL     1      -1.103   0.043   0.703  1.00  0.00     0.000 A 
HETATM    8  C7  UNL     1      -1.271   0.517   1.984  1.00  0.00     0.002 A 
HETATM    9  C6  UNL     1      -2.511   0.386   2.581  1.00  0.00     0.019 A 
HETATM   10  C5  UNL     1      -3.556  -0.212   1.899  1.00  0.00     0.079 A 
HETATM   11  N2  UNL     1      -4.928  -0.492   2.232  1.00  0.00    -0.263 NA
HETATM   12  C10 UNL     1      -3.338  -0.671   0.619  1.00  0.00     0.054 A 
HETATM   13  C4  UNL     1      -5.668  -0.677   0.974  1.00  0.00     0.198 C 
HETATM   14  C11 UNL     1      -4.574  -1.253   0.116  1.00  0.00     0.199 C 
HETATM   15  O1  UNL     1      -4.759  -2.063  -0.823  1.00  0.00    -0.289 OA
HETATM   16  C9  UNL     1      -2.105  -0.561  -0.026  1.00  0.00     0.004 A 
BRANCH  13  17
HETATM   17  C3  UNL     1      -5.945   0.721   0.463  1.00  0.00     0.282 C 
BRANCH  17  18
HETATM   18  N1  UNL     1      -6.667   0.753  -0.769  1.00  0.00     0.144 N 
HETATM   19  C1  UNL     1      -8.026   0.296  -0.674  1.00  0.00     0.286 C 
HETATM   20  C2  UNL     1      -5.970   0.182  -1.879  1.00  0.00     0.286 C 
ENDBRANCH  17  18
ENDBRANCH  13  17
ENDBRANCH   1   7
BRANCH   4  21
HETATM   21  O2  UNL     1       3.943   0.485  -1.797  1.00  0.00    -0.331 OA
BRANCH  21  22
HETATM   22  C16 UNL     1       4.783   1.584  -1.497  1.00  0.00     0.144 C 
HETATM   23  C17 UNL     1       6.048   1.422  -2.313  1.00  0.00     0.035 C 
BRANCH  22  24
HETATM   24  C18 UNL     1       5.169   1.471  -0.037  1.00  0.00     0.138 C 
BRANCH  24  25
HETATM   25  N3  UNL     1       5.871   0.201   0.146  1.00  0.00    -0.306 N 
HETATM   26  C19 UNL     1       7.167  -0.073   0.054  1.00  0.00     0.098 A 
HETATM   27  C20 UNL     1       7.338  -1.397   0.309  1.00  0.00     0.119 A 
HETATM   28  N4  UNL     1       6.115  -1.898   0.553  1.00  0.00    -0.223 NA
HETATM   29  C21 UNL     1       5.208  -0.926   0.456  1.00  0.00     0.179 A 
ENDBRANCH  24  25
ENDBRANCH  22  24
ENDBRANCH  21  22
ENDBRANCH   4  21
TORSDOF 7
