REMARK  7 active torsions:
REMARK  status: ('A' for Active; 'I' for Inactive)
REMARK    1  A    between atoms: N1_2  and  C3_4 
REMARK    2  A    between atoms: C3_4  and  C4_5 
REMARK    3  A    between atoms: C4_5  and  C5_6 
REMARK    4  A    between atoms: C5_6  and  N2_7 
REMARK    5  A    between atoms: C7_11  and  C8_12 
REMARK    6  A    between atoms: C10_14  and  N5_15 
REMARK       I    between atoms: N5_15  and  C11_16 
REMARK    7  A    between atoms: C11_16  and  C12_18 
ROOT
HETATM    1  C8  UNL     1       1.461  -0.821   0.285  1.00  0.00     0.038 A 
HETATM    2  C9  UNL     1       0.151  -0.384   0.426  1.00  0.00     0.024 A 
HETATM    3  C10 UNL     1      -0.907  -1.050  -0.142  1.00  0.00     0.107 A 
HETATM    4  C18 UNL     1      -0.648  -2.185  -0.871  1.00  0.00     0.118 A 
HETATM    5  O4  UNL     1      -1.462  -3.003  -1.513  1.00  0.00    -0.304 OA
HETATM    6  C19 UNL     1      -0.804  -3.961  -2.078  1.00  0.00     0.123 A 
HETATM    7  C20 UNL     1       0.533  -3.793  -1.811  1.00  0.00     0.029 A 
HETATM    8  C21 UNL     1       0.633  -2.655  -1.038  1.00  0.00     0.026 A 
HETATM    9  C22 UNL     1       1.659  -1.964  -0.457  1.00  0.00     0.005 A 
ENDROOT
BRANCH   1  10
HETATM   10  C7  UNL     1       2.568  -0.100   0.894  1.00  0.00     0.167 A 
HETATM   11  N2  UNL     1       3.886  -0.371   0.861  1.00  0.00    -0.293 N 
HETATM   12  C6  UNL     1       4.552   0.555   1.558  1.00  0.00     0.203 A 
HETATM   13  N3  UNL     1       3.632   1.416   2.032  1.00  0.00    -0.126 NA
HETATM   14  N4  UNL     1       2.418   1.016   1.627  1.00  0.00    -0.129 NA
BRANCH  11  15
HETATM   15  C5  UNL     1       4.420  -1.514   0.162  1.00  0.00     0.111 C 
BRANCH  15  16
HETATM   16  C4  UNL     1       4.763  -1.260  -1.268  1.00  0.00     0.060 C 
BRANCH  16  17
HETATM   17  C3  UNL     1       5.794  -0.197  -1.503  1.00  0.00     0.252 C 
BRANCH  17  18
HETATM   18  N1  UNL     1       5.435   1.105  -1.018  1.00  0.00     0.141 N 
HETATM   19  C1  UNL     1       4.352   1.706  -1.741  1.00  0.00     0.285 C 
HETATM   20  C2  UNL     1       6.578   1.976  -1.006  1.00  0.00     0.285 C 
ENDBRANCH  17  18
ENDBRANCH  16  17
ENDBRANCH  15  16
ENDBRANCH  11  15
ENDBRANCH   1  10
BRANCH   3  21
HETATM   21  N5  UNL     1      -2.229  -0.575   0.019  1.00  0.00    -0.206 NA
HETATM   22  C11 UNL     1      -2.594   0.562   0.748  1.00  0.00     0.281 C 
HETATM   23  O1  UNL     1      -1.648   1.210   1.306  1.00  0.00    -0.265 OA
BRANCH  22  24
HETATM   24  C12 UNL     1      -3.939   1.054   0.916  1.00  0.00     0.083 A 
HETATM   25  C13 UNL     1      -4.992   0.390   0.327  1.00  0.00     0.009 A 
HETATM   26  C14 UNL     1      -6.297   0.831   0.459  1.00  0.00     0.028 A 
HETATM   27  C15 UNL     1      -6.546   1.964   1.200  1.00  0.00     0.133 A 
HETATM   28  O2  UNL     1      -7.876   2.360   1.299  1.00  0.00    -0.190 OA
HETATM   29  C16 UNL     1      -5.506   2.631   1.790  1.00  0.00     0.055 A 
HETATM   30  C17 UNL     1      -4.207   2.175   1.646  1.00  0.00     0.138 A 
HETATM   31  O3  UNL     1      -3.180   2.883   2.262  1.00  0.00    -0.190 OA
ENDBRANCH  22  24
ENDBRANCH   3  21
TORSDOF 7
