REMARK  7 active torsions:
REMARK  status: ('A' for Active; 'I' for Inactive)
REMARK    1  A    between atoms: C1_2  and  N2_3 
REMARK    2  A    between atoms: C1_2  and  C11_15 
REMARK    3  A    between atoms: N2_3  and  C2_4 
REMARK    4  A    between atoms: C2_4  and  C3_5 
REMARK    5  A    between atoms: C3_5  and  C4_6 
REMARK    6  A    between atoms: C4_6  and  N3_7 
REMARK       I    between atoms: C11_15  and  N4_17 
REMARK    7  A    between atoms: N4_17  and  C12_18 
ROOT
HETATM    1  N2  UNL     1       0.812  -0.198   2.582  1.00  0.00    -0.247 NA
ENDROOT
BRANCH   1   2
HETATM    2  C1  UNL     1       1.070  -1.078   1.516  1.00  0.00     0.238 C 
HETATM    3  N1  UNL     1       0.357  -2.153   1.401  1.00  0.00    -0.122 N 
BRANCH   2   4
HETATM    4  C11 UNL     1       2.106  -0.852   0.517  1.00  0.00     0.317 C 
HETATM    5  O2  UNL     1       2.309  -1.661  -0.423  1.00  0.00    -0.262 OA
HETATM    6  N4  UNL     1       2.953   0.299   0.546  1.00  0.00    -0.199 NA
BRANCH   6   7
HETATM    7  C12 UNL     1       3.966   0.472  -0.471  1.00  0.00     0.114 A 
HETATM    8  C13 UNL     1       4.847   1.512  -0.579  1.00  0.00     0.026 A 
HETATM    9  C14 UNL     1       5.704   1.483  -1.592  1.00  0.00     0.009 A 
HETATM   10  C15 UNL     1       5.653   0.428  -2.452  1.00  0.00     0.037 A 
HETATM   11  S1  UNL     1       4.382  -0.506  -1.803  1.00  0.00    -0.067 SA
ENDBRANCH   6   7
ENDBRANCH   2   4
ENDBRANCH   1   2
BRANCH   1  12
HETATM   12  C2  UNL     1      -0.516  -0.096   3.149  1.00  0.00     0.130 C 
BRANCH  12  13
HETATM   13  C3  UNL     1      -1.518   0.525   2.213  1.00  0.00     0.051 C 
BRANCH  13  14
HETATM   14  C4  UNL     1      -1.666  -0.271   0.934  1.00  0.00     0.106 C 
BRANCH  14  15
HETATM   15  N3  UNL     1      -2.614   0.298   0.032  1.00  0.00    -0.320 N 
HETATM   16  C5  UNL     1      -2.075   1.263  -0.921  1.00  0.00     0.104 C 
HETATM   17  C6  UNL     1      -3.110   2.279  -1.353  1.00  0.00     0.024 C 
HETATM   18  C7  UNL     1      -4.076   1.607  -2.333  1.00  0.00     0.003 C 
HETATM   19  C8  UNL     1      -5.296   1.204  -1.501  1.00  0.00     0.010 C 
HETATM   20  C9  UNL     1      -5.010  -0.153  -0.906  1.00  0.00     0.088 C 
HETATM   21  C10 UNL     1      -3.980  -0.125   0.146  1.00  0.00     0.234 C 
HETATM   22  O1  UNL     1      -4.296  -0.512   1.298  1.00  0.00    -0.272 OA
ENDBRANCH  14  15
ENDBRANCH  13  14
ENDBRANCH  12  13
ENDBRANCH   1  12
TORSDOF 7
