REMARK  6 active torsions:
REMARK  status: ('A' for Active; 'I' for Inactive)
REMARK    1  A    between atoms: C5_5  and  C6_6 
REMARK    2  A    between atoms: C6_6  and  N1_7 
REMARK       I    between atoms: N1_7  and  C7_8 
REMARK    3  A    between atoms: C7_8  and  C8_10 
REMARK    4  A    between atoms: C11_15  and  S1_17 
REMARK    5  A    between atoms: S1_17  and  N4_20 
REMARK    6  A    between atoms: N4_20  and  C12_21 
ROOT
HETATM    1  C8  UNL     1       0.503  -1.098   0.843  1.00  0.00     0.195 C 
HETATM    2  C9  UNL     1       0.486  -2.316   1.674  1.00  0.00     0.124 C 
HETATM    3  C10 UNL     1      -0.389  -3.369   1.168  1.00  0.00     0.260 C 
HETATM    4  O2  UNL     1      -0.307  -4.525   1.673  1.00  0.00    -0.270 OA
HETATM    5  N2  UNL     1      -1.342  -3.174   0.125  1.00  0.00    -0.181 NA
HETATM    6  C11 UNL     1      -1.488  -2.004  -0.377  1.00  0.00     0.269 C 
HETATM    7  N3  UNL     1      -0.709  -0.941   0.106  1.00  0.00    -0.234 NA
ENDROOT
BRANCH   1   8
HETATM    8  C7  UNL     1       1.711  -0.816   0.084  1.00  0.00     0.275 C 
HETATM    9  N1  UNL     1       2.985  -0.942   0.692  1.00  0.00    -0.232 NA
HETATM   10  O1  UNL     1       1.658  -0.457  -1.117  1.00  0.00    -0.268 OA
BRANCH   9  11
HETATM   11  C6  UNL     1       4.201  -0.664  -0.048  1.00  0.00     0.155 C 
BRANCH  11  12
HETATM   12  C5  UNL     1       4.359   0.815  -0.164  1.00  0.00     0.002 A 
HETATM   13  C4  UNL     1       5.046   1.441   0.844  1.00  0.00    -0.003 A 
HETATM   14  C3  UNL     1       5.262   2.798   0.858  1.00  0.00    -0.004 A 
HETATM   15  C2  UNL     1       4.752   3.522  -0.199  1.00  0.00    -0.022 A 
HETATM   16  C1  UNL     1       4.985   4.991  -0.186  1.00  0.00     0.031 C 
HETATM   17  C19 UNL     1       4.059   2.924  -1.224  1.00  0.00    -0.004 A 
HETATM   18  C18 UNL     1       3.867   1.566  -1.196  1.00  0.00    -0.003 A 
ENDBRANCH  11  12
ENDBRANCH   9  11
ENDBRANCH   1   8
BRANCH   6  19
HETATM   19  S1  UNL     1      -2.634  -1.668  -1.659  1.00  0.00     0.319 S 
HETATM   20  O3  UNL     1      -2.134  -0.554  -2.532  1.00  0.00    -0.195 OA
HETATM   21  O4  UNL     1      -2.720  -2.903  -2.508  1.00  0.00    -0.195 OA
BRANCH  19  22
HETATM   22  N4  UNL     1      -4.164  -1.202  -1.034  1.00  0.00    -0.156 NA
BRANCH  22  23
HETATM   23  C12 UNL     1      -4.221  -0.030  -0.248  1.00  0.00     0.095 A 
HETATM   24  C13 UNL     1      -5.222   0.889  -0.453  1.00  0.00     0.020 A 
HETATM   25  C14 UNL     1      -5.308   2.055   0.303  1.00  0.00     0.002 A 
HETATM   26  C15 UNL     1      -4.377   2.290   1.269  1.00  0.00     0.011 A 
HETATM   27  C16 UNL     1      -3.361   1.394   1.504  1.00  0.00     0.059 A 
HETATM   28 CL1  UNL     1      -2.204   1.749   2.748  1.00  0.00    -0.082 Cl
HETATM   29  C17 UNL     1      -3.296   0.228   0.729  1.00  0.00     0.031 A 
ENDBRANCH  22  23
ENDBRANCH  19  22
ENDBRANCH   6  19
TORSDOF 6
