REMARK  3 active torsions:
REMARK  status: ('A' for Active; 'I' for Inactive)
REMARK    1  A    between atoms: N3_11  and  C9_12 
REMARK    2  A    between atoms: C12_15  and  S1_18 
REMARK    3  A    between atoms: S1_18  and  N4_21 
ROOT
HETATM    1  C9  UNL     1      -1.124  -0.554  -0.104  1.00  0.00     0.061 A 
HETATM    2  C10 UNL     1      -0.510   0.378  -0.909  1.00  0.00     0.018 A 
HETATM    3  C11 UNL     1       0.805   0.209  -1.274  1.00  0.00     0.014 A 
HETATM    4  C12 UNL     1       1.542  -0.876  -0.858  1.00  0.00     0.099 A 
HETATM    5  C13 UNL     1       0.925  -1.805  -0.054  1.00  0.00     0.014 A 
HETATM    6  C14 UNL     1      -0.389  -1.641   0.314  1.00  0.00     0.018 A 
ENDROOT
BRANCH   1   7
HETATM    7  N3  UNL     1      -2.476  -0.386   0.273  1.00  0.00    -0.312 N 
HETATM    8  C2  UNL     1      -3.118  -1.372   1.141  1.00  0.00     0.111 C 
HETATM    9  C1  UNL     1      -2.075  -2.181   1.878  1.00  0.00     0.027 C 
HETATM   10  C3  UNL     1      -3.896  -0.588   2.198  1.00  0.00     0.148 C 
HETATM   11  N1  UNL     1      -4.830   0.251   1.449  1.00  0.00    -0.266 NA
HETATM   12  C4  UNL     1      -4.376   1.085   0.379  1.00  0.00     0.110 A 
HETATM   13  C5  UNL     1      -5.049   2.174  -0.083  1.00  0.00     0.023 A 
HETATM   14  C8  UNL     1      -3.178   0.748  -0.208  1.00  0.00     0.161 A 
HETATM   15  C6  UNL     1      -4.532   2.918  -1.121  1.00  0.00     0.022 A 
HETATM   16  C7  UNL     1      -3.334   2.566  -1.695  1.00  0.00     0.101 A 
HETATM   17  N2  UNL     1      -2.683   1.494  -1.230  1.00  0.00    -0.225 NA
ENDBRANCH   1   7
BRANCH   4  18
HETATM   18  S1  UNL     1       3.202  -1.117  -1.302  1.00  0.00     0.247 S 
HETATM   19  O1  UNL     1       3.422  -0.544  -2.663  1.00  0.00    -0.206 OA
HETATM   20  O2  UNL     1       3.525  -2.592  -1.271  1.00  0.00    -0.206 OA
BRANCH  18  21
HETATM   21  N4  UNL     1       4.214  -0.363  -0.117  1.00  0.00    -0.172 NA
HETATM   22  C15 UNL     1       4.007  -0.960   1.175  1.00  0.00     0.120 C 
HETATM   23  C16 UNL     1       4.821  -0.144   2.177  1.00  0.00     0.161 C 
HETATM   24  O3  UNL     1       5.775   0.620   1.532  1.00  0.00    -0.351 OA
HETATM   25  C17 UNL     1       5.238   1.613   0.731  1.00  0.00     0.161 C 
HETATM   26  C18 UNL     1       4.096   1.067  -0.128  1.00  0.00     0.120 C 
ENDBRANCH  18  21
ENDBRANCH   4  18
TORSDOF 3
