REMARK  4 active torsions:
REMARK  status: ('A' for Active; 'I' for Inactive)
REMARK    1  A    between atoms: C2_3  and  N1_4 
REMARK    2  A    between atoms: N1_4  and  C3_5 
REMARK    3  A    between atoms: C6_8  and  N2_9 
REMARK    4  A    between atoms: N2_9  and  C7_10 
ROOT
HETATM    1  C3  UNL     1       1.076  -1.409  -0.117  1.00  0.00     0.081 A 
HETATM    2  C4  UNL     1       0.213  -2.469  -0.288  1.00  0.00     0.021 A 
HETATM    3  C5  UNL     1      -1.174  -2.289  -0.257  1.00  0.00     0.021 A 
HETATM    4  C6  UNL     1      -1.713  -1.027  -0.051  1.00  0.00     0.082 A 
HETATM    5  C13 UNL     1      -0.863   0.017   0.118  1.00  0.00     0.021 A 
HETATM    6  C14 UNL     1       0.520  -0.164   0.086  1.00  0.00     0.021 A 
ENDROOT
BRANCH   1   7
HETATM    7  N1  UNL     1       2.478  -1.627  -0.154  1.00  0.00    -0.248 NA
BRANCH   7   8
HETATM    8  C2  UNL     1       3.452  -0.638   0.005  1.00  0.00     0.087 C 
HETATM    9  C1  UNL     1       4.612  -0.711  -0.625  1.00  0.00     0.179 C 
HETATM   10  O1  UNL     1       4.804  -1.819  -1.449  1.00  0.00    -0.186 OA
HETATM   11  C18 UNL     1       5.647   0.320  -0.469  1.00  0.00     0.199 C 
HETATM   12  C17 UNL     1       5.188   1.700  -0.193  1.00  0.00     0.072 C 
HETATM   13  O2  UNL     1       6.828  -0.023  -0.576  1.00  0.00    -0.289 OA
HETATM   14  C16 UNL     1       3.757   1.764   0.216  1.00  0.00     0.015 C 
HETATM   15  C15 UNL     1       3.235   0.537   0.885  1.00  0.00     0.049 C 
ENDBRANCH   7   8
ENDBRANCH   1   7
BRANCH   4  16
HETATM   16  N2  UNL     1      -3.125  -0.937  -0.034  1.00  0.00    -0.244 NA
BRANCH  16  17
HETATM   17  C7  UNL     1      -3.850   0.250   0.160  1.00  0.00     0.102 A 
HETATM   18  C8  UNL     1      -4.217   1.039  -0.910  1.00  0.00     0.076 A 
HETATM   19 CL1  UNL     1      -3.742   0.499  -2.516  1.00  0.00    -0.081 Cl
HETATM   20  C9  UNL     1      -4.935   2.217  -0.736  1.00  0.00     0.013 A 
HETATM   21  C10 UNL     1      -5.300   2.627   0.524  1.00  0.00     0.002 A 
HETATM   22  C11 UNL     1      -4.934   1.841   1.596  1.00  0.00     0.013 A 
HETATM   23  C12 UNL     1      -4.212   0.653   1.428  1.00  0.00     0.076 A 
HETATM   24 CL2  UNL     1      -3.745  -0.348   2.776  1.00  0.00    -0.081 Cl
ENDBRANCH  16  17
ENDBRANCH   4  16
TORSDOF 4
