REMARK  6 active torsions:
REMARK  status: ('A' for Active; 'I' for Inactive)
REMARK    1  A    between atoms: C3_3  and  S1_4 
REMARK    2  A    between atoms: S1_4  and  C4_5 
REMARK    3  A    between atoms: N1_14  and  C15_22 
REMARK    4  A    between atoms: C11_15  and  C12_16 
REMARK    5  A    between atoms: C12_16  and  N2_17 
REMARK    6  A    between atoms: C17_25  and  C20_29 
ROOT
HETATM    1  C1  UNL     1       1.296   2.287  -2.443  1.00  0.00     0.029 C 
HETATM    2  C2  UNL     1       0.949   1.340  -1.359  1.00  0.00    -0.011 C 
HETATM    3  C3  UNL     1       1.739   0.533  -0.670  1.00  0.00     0.080 C 
HETATM    4  C10 UNL     1       0.939  -0.306   0.207  1.00  0.00     0.268 C 
HETATM    5  O1  UNL     1       1.306  -1.194   1.021  1.00  0.00    -0.266 OA
HETATM    6  N1  UNL     1      -0.471   0.029   0.021  1.00  0.00    -0.276 N 
HETATM    7  C11 UNL     1      -0.424   1.284  -0.735  1.00  0.00     0.134 C 
ENDROOT
BRANCH   6   8
HETATM    8  C15 UNL     1      -1.647  -0.630   0.392  1.00  0.00     0.157 A 
HETATM    9  N5  UNL     1      -1.828  -1.328   1.511  1.00  0.00    -0.226 NA
HETATM   10  C16 UNL     1      -3.020  -1.932   1.794  1.00  0.00     0.104 A 
HETATM   11  C17 UNL     1      -4.091  -1.859   0.952  1.00  0.00     0.091 A 
HETATM   12  C18 UNL     1      -3.937  -1.134  -0.226  1.00  0.00     0.020 A 
HETATM   13  C19 UNL     1      -2.712  -0.540  -0.466  1.00  0.00     0.092 A 
HETATM   14 CL1  UNL     1      -2.579   0.363  -1.946  1.00  0.00    -0.079 Cl
BRANCH  11  15
HETATM   15  C20 UNL     1      -5.394  -2.515   1.235  1.00  0.00     0.420 C 
HETATM   16  F2  UNL     1      -6.067  -1.946   2.314  1.00  0.00    -0.166 F 
HETATM   17  F3  UNL     1      -5.199  -3.890   1.505  1.00  0.00    -0.166 F 
HETATM   18  F4  UNL     1      -6.176  -2.495   0.095  1.00  0.00    -0.166 F 
ENDBRANCH  11  15
ENDBRANCH   6   8
BRANCH   7  19
HETATM   19  C12 UNL     1      -0.427   2.445   0.285  1.00  0.00     0.156 C 
BRANCH  19  20
HETATM   20  N2  UNL     1      -0.189   3.716  -0.439  1.00  0.00    -0.228 N 
HETATM   21  C13 UNL     1      -1.259   4.414  -0.921  1.00  0.00     0.197 A 
HETATM   22  N3  UNL     1      -0.823   5.534  -1.538  1.00  0.00    -0.201 NA
HETATM   23  C14 UNL     1       0.532   5.504  -1.423  1.00  0.00     0.221 A 
HETATM   24  N4  UNL     1       0.847   4.385  -0.754  1.00  0.00    -0.145 NA
ENDBRANCH  19  20
ENDBRANCH   7  19
BRANCH   3  25
HETATM   25  S1  UNL     1       3.507   0.446  -0.930  1.00  0.00    -0.080 SA
BRANCH  25  26
HETATM   26  C4  UNL     1       4.306  -0.791   0.033  1.00  0.00     0.057 A 
HETATM   27  C5  UNL     1       4.420  -0.730   1.416  1.00  0.00     0.009 A 
HETATM   28  C6  UNL     1       5.138  -1.682   2.098  1.00  0.00     0.001 A 
HETATM   29  C7  UNL     1       5.762  -2.730   1.422  1.00  0.00     0.002 A 
HETATM   30  C8  UNL     1       5.675  -2.835   0.047  1.00  0.00     0.030 A 
HETATM   31  C9  UNL     1       4.937  -1.844  -0.583  1.00  0.00     0.146 A 
HETATM   32  F1  UNL     1       4.891  -1.900  -1.917  1.00  0.00    -0.204 F 
ENDBRANCH  25  26
ENDBRANCH   3  25
TORSDOF 6
