REMARK  10 active torsions:
REMARK  status: ('A' for Active; 'I' for Inactive)
REMARK    1  A    between atoms: O1_2  and  C2_3 
REMARK    2  A    between atoms: C4_5  and  N3_31 
REMARK    3  A    between atoms: C7_8  and  O2_9 
REMARK    4  A    between atoms: O2_9  and  C8_10 
REMARK    5  A    between atoms: C8_10  and  C9_11 
REMARK       I    between atoms: C9_11  and  N1_13 
REMARK    6  A    between atoms: N1_13  and  C10_14 
REMARK    7  A    between atoms: C10_14  and  C11_15 
REMARK    8  A    between atoms: C10_14  and  C14_18 
REMARK       I    between atoms: C14_18  and  N2_20 
REMARK    9  A    between atoms: N2_20  and  S1_21 
REMARK   10  A    between atoms: S1_21  and  C15_24 
ROOT
HETATM    1  C9  UNL     1      -0.290  -1.637   0.515  1.00  0.00     0.287 C 
HETATM    2  O3  UNL     1      -0.737  -0.888  -0.407  1.00  0.00    -0.267 OA
HETATM    3  N1  UNL     1       0.851  -1.172   1.217  1.00  0.00    -0.205 NA
ENDROOT
BRANCH   1   4
HETATM    4  C8  UNL     1      -0.881  -2.935   0.885  1.00  0.00     0.238 C 
BRANCH   4   5
HETATM    5  O2  UNL     1      -2.035  -3.101   0.052  1.00  0.00    -0.319 OA
BRANCH   5   6
HETATM    6  C7  UNL     1      -3.049  -2.150   0.217  1.00  0.00     0.117 A 
HETATM    7  C2  UNL     1      -4.163  -2.262  -0.579  1.00  0.00     0.118 A 
HETATM    8  C3  UNL     1      -5.167  -1.355  -0.444  1.00  0.00     0.043 A 
HETATM    9  C4  UNL     1      -5.120  -0.330   0.450  1.00  0.00     0.058 A 
HETATM   10  C5  UNL     1      -3.994  -0.235   1.240  1.00  0.00     0.019 A 
HETATM   11  C6  UNL     1      -2.956  -1.121   1.145  1.00  0.00     0.028 A 
BRANCH   7  12
HETATM   12  O1  UNL     1      -4.248  -3.293  -1.506  1.00  0.00    -0.326 OA
HETATM   13  C1  UNL     1      -5.359  -3.450  -2.342  1.00  0.00     0.181 C 
ENDBRANCH   7  12
BRANCH   9  14
HETATM   14  N3  UNL     1      -6.193   0.606   0.572  1.00  0.00    -0.344 N 
HETATM   15  C22 UNL     1      -7.372   0.532  -0.251  1.00  0.00     0.140 C 
HETATM   16  C23 UNL     1      -7.675   1.852  -0.919  1.00  0.00     0.314 C 
HETATM   17  N4  UNL     1      -7.188   2.962  -0.139  1.00  0.00     0.343 N 
HETATM   18  C24 UNL     1      -7.159   2.663   1.295  1.00  0.00     0.314 C 
HETATM   19  C25 UNL     1      -6.076   1.649   1.557  1.00  0.00     0.140 C 
ENDBRANCH   9  14
ENDBRANCH   5   6
ENDBRANCH   4   5
ENDBRANCH   1   4
BRANCH   3  20
HETATM   20  C10 UNL     1       1.475   0.076   0.885  1.00  0.00     0.135 C 
BRANCH  20  21
HETATM   21  C11 UNL     1       1.514   1.086   1.928  1.00  0.00    -0.021 C 
HETATM   22  C12 UNL     1       2.165   2.364   1.553  1.00  0.00     0.028 C 
HETATM   23  C13 UNL     1       0.285   1.216   2.762  1.00  0.00     0.028 C 
ENDBRANCH  20  21
BRANCH  20  24
HETATM   24  C14 UNL     1       2.512  -0.009  -0.108  1.00  0.00     0.306 C 
HETATM   25  O4  UNL     1       2.840  -1.148  -0.597  1.00  0.00    -0.263 OA
HETATM   26  N2  UNL     1       3.225   1.106  -0.606  1.00  0.00    -0.116 NA
BRANCH  26  27
HETATM   27  S1  UNL     1       4.454   0.819  -1.815  1.00  0.00     0.288 S 
HETATM   28  O5  UNL     1       4.236   1.811  -2.904  1.00  0.00    -0.198 OA
HETATM   29  O6  UNL     1       4.383  -0.578  -2.320  1.00  0.00    -0.198 OA
BRANCH  27  30
HETATM   30  C15 UNL     1       5.999   1.093  -1.050  1.00  0.00     0.105 A 
HETATM   31  C16 UNL     1       6.691   2.262  -1.210  1.00  0.00     0.013 A 
HETATM   32  C17 UNL     1       7.893   2.468  -0.600  1.00  0.00     0.000 A 
HETATM   33  C18 UNL     1       8.441   1.469   0.210  1.00  0.00    -0.004 A 
HETATM   34  C19 UNL     1       7.768   0.291   0.386  1.00  0.00    -0.021 A 
HETATM   35  C20 UNL     1       8.367  -0.766   1.257  1.00  0.00     0.031 C 
HETATM   36  C21 UNL     1       6.564   0.103  -0.235  1.00  0.00     0.009 A 
ENDBRANCH  27  30
ENDBRANCH  26  27
ENDBRANCH  20  24
ENDBRANCH   3  20
TORSDOF 10
