REMARK  11 active torsions:
REMARK  status: ('A' for Active; 'I' for Inactive)
REMARK    1  A    between atoms: C2_2  and  C3_3 
REMARK    2  A    between atoms: C3_3  and  C4_4 
REMARK    3  A    between atoms: C4_4  and  C5_5 
REMARK    4  A    between atoms: C5_5  and  C6_6 
REMARK    5  A    between atoms: C6_6  and  C7_7 
REMARK    6  A    between atoms: C7_7  and  C8_8 
REMARK    7  A    between atoms: C8_8  and  C9_9 
REMARK    8  A    between atoms: C9_9  and  C10_10 
REMARK    9  A    between atoms: C11_11  and  N1_12 
REMARK   10  A    between atoms: N1_12  and  S1_13 
REMARK   11  A    between atoms: N2_23  and  C19_24 
ROOT
HETATM    1  C10 UNL     1      -0.909  -0.817  -0.001  1.00  0.00     0.057 A 
HETATM    2  C11 UNL     1      -1.310   0.498  -0.055  1.00  0.00     0.106 A 
HETATM    3  C13 UNL     1      -1.926   0.685  -1.284  1.00  0.00     0.035 A 
HETATM    4  C14 UNL     1      -2.504   1.805  -1.848  1.00  0.00     0.003 A 
HETATM    5  C15 UNL     1      -3.053   1.700  -3.109  1.00  0.00     0.000 A 
HETATM    6  C16 UNL     1      -3.010   0.490  -3.768  1.00  0.00     0.002 A 
HETATM    7  C17 UNL     1      -2.433  -0.639  -3.213  1.00  0.00     0.017 A 
HETATM    8  C18 UNL     1      -1.877  -0.541  -1.938  1.00  0.00     0.062 A 
HETATM    9  N2  UNL     1      -1.256  -1.449  -1.151  1.00  0.00    -0.315 N 
ENDROOT
BRANCH   1  10
HETATM   10  C9  UNL     1      -0.197  -1.505   1.101  1.00  0.00     0.045 C 
BRANCH  10  11
HETATM   11  C8  UNL     1       1.284  -1.169   1.134  1.00  0.00     0.006 C 
BRANCH  11  12
HETATM   12  C7  UNL     1       1.942  -1.584  -0.169  1.00  0.00     0.000 C 
BRANCH  12  13
HETATM   13  C6  UNL     1       3.399  -1.299  -0.213  1.00  0.00     0.000 C 
BRANCH  13  14
HETATM   14  C5  UNL     1       3.781   0.141  -0.055  1.00  0.00     0.000 C 
BRANCH  14  15
HETATM   15  C4  UNL     1       5.278   0.344  -0.115  1.00  0.00     0.000 C 
BRANCH  15  16
HETATM   16  C3  UNL     1       6.017  -0.401   0.950  1.00  0.00     0.000 C 
BRANCH  16  17
HETATM   17  C2  UNL     1       5.640  -0.026   2.346  1.00  0.00     0.000 C 
HETATM   18  C1  UNL     1       6.453  -0.844   3.312  1.00  0.00     0.000 C 
ENDBRANCH  16  17
ENDBRANCH  15  16
ENDBRANCH  14  15
ENDBRANCH  13  14
ENDBRANCH  12  13
ENDBRANCH  11  12
ENDBRANCH  10  11
ENDBRANCH   1  10
BRANCH   2  19
HETATM   19  N1  UNL     1      -1.117   1.477   0.988  1.00  0.00    -0.161 NA
BRANCH  19  20
HETATM   20  S1  UNL     1      -2.379   1.617   2.178  1.00  0.00     0.266 S 
HETATM   21  C12 UNL     1      -3.860   2.106   1.323  1.00  0.00     0.165 C 
HETATM   22  O1  UNL     1      -2.627   0.260   2.764  1.00  0.00    -0.203 OA
HETATM   23  O2  UNL     1      -2.003   2.583   3.241  1.00  0.00    -0.203 OA
ENDBRANCH  19  20
ENDBRANCH   2  19
BRANCH   9  24
HETATM   24  C19 UNL     1      -1.005  -2.841  -1.465  1.00  0.00     0.203 C 
HETATM   25 CL1  UNL     1      -2.329  -3.905  -0.951  1.00  0.00    -0.086 Cl
ENDBRANCH   9  24
TORSDOF 11
