REMARK  5 active torsions:
REMARK  status: ('A' for Active; 'I' for Inactive)
REMARK    1  A    between atoms: C2_2  and  C3_3 
REMARK    2  A    between atoms: C3_3  and  C4_4 
REMARK    3  A    between atoms: C4_4  and  O1_5 
REMARK    4  A    between atoms: O1_5  and  C5_6 
REMARK    5  A    between atoms: C9_11  and  C10_12 
ROOT
HETATM    1  C5  UNL     1       2.627   0.491  -1.985  1.00  0.00     0.096 A 
HETATM    2  C6  UNL     1       1.651   0.956  -2.850  1.00  0.00     0.026 A 
HETATM    3  C7  UNL     1       0.416   1.256  -2.340  1.00  0.00     0.028 A 
HETATM    4  C8  UNL     1       0.158   1.091  -0.979  1.00  0.00     0.118 A 
HETATM    5  O2  UNL     1      -1.093   1.406  -0.525  1.00  0.00    -0.317 OA
HETATM    6  C9  UNL     1      -1.515   1.297   0.823  1.00  0.00     0.229 A 
HETATM    7  C16 UNL     1      -0.455   0.801   1.707  1.00  0.00     0.308 A 
HETATM    8  O3  UNL     1      -0.682   0.652   2.927  1.00  0.00    -0.261 OA
HETATM    9  O4  UNL     1       0.808   0.487   1.228  1.00  0.00    -0.272 OA
HETATM   10  C17 UNL     1       1.135   0.627  -0.121  1.00  0.00     0.127 A 
HETATM   11  C18 UNL     1       2.374   0.328  -0.640  1.00  0.00     0.051 A 
ENDROOT
BRANCH   6  12
HETATM   12  C10 UNL     1      -2.768   0.509   0.937  1.00  0.00     0.015 A 
HETATM   13  C11 UNL     1      -2.896  -0.458   1.910  1.00  0.00    -0.001 A 
HETATM   14  C12 UNL     1      -4.070  -1.209   2.031  1.00  0.00     0.011 A 
HETATM   15  C13 UNL     1      -5.128  -1.003   1.182  1.00  0.00     0.058 A 
HETATM   16 CL1  UNL     1      -6.617  -1.931   1.309  1.00  0.00    -0.082 Cl
HETATM   17  C14 UNL     1      -5.008  -0.035   0.203  1.00  0.00     0.011 A 
HETATM   18  C15 UNL     1      -3.833   0.711   0.088  1.00  0.00    -0.001 A 
ENDBRANCH   6  12
BRANCH   1  19
HETATM   19  O1  UNL     1       3.877   0.185  -2.482  1.00  0.00    -0.330 OA
BRANCH  19  20
HETATM   20  C4  UNL     1       4.874  -0.290  -1.601  1.00  0.00     0.153 C 
BRANCH  20  21
HETATM   21  C3  UNL     1       4.337  -1.584  -0.981  1.00  0.00     0.059 C 
BRANCH  21  22
HETATM   22  C2  UNL     1       5.319  -2.161  -0.036  1.00  0.00    -0.024 C 
HETATM   23  C1  UNL     1       6.488  -1.580   0.193  1.00  0.00    -0.005 C 
ENDBRANCH  21  22
ENDBRANCH  20  21
ENDBRANCH  19  20
ENDBRANCH   1  19
TORSDOF 5
