REMARK  3 active torsions:
REMARK  status: ('A' for Active; 'I' for Inactive)
REMARK    1  A    between atoms: N1_4  and  C4_5 
REMARK    2  A    between atoms: C4_5  and  C5_6 
REMARK    3  A    between atoms: C10_13  and  C11_15 
ROOT
HETATM    1  C1  UNL     1      -0.480  -4.313   0.965  1.00  0.00     0.054 C 
HETATM    2  C2  UNL     1      -0.503  -2.837   0.734  1.00  0.00     0.078 A 
HETATM    3  C3  UNL     1       0.608  -2.001   0.602  1.00  0.00     0.092 A 
HETATM    4  N1  UNL     1       0.132  -0.760   0.408  1.00  0.00    -0.310 N 
HETATM    5  C10 UNL     1      -1.199  -0.750   0.408  1.00  0.00     0.161 A 
HETATM    6  N2  UNL     1      -1.564  -2.026   0.608  1.00  0.00    -0.230 NA
ENDROOT
BRANCH   4   7
HETATM    7  C4  UNL     1       0.966   0.409   0.225  1.00  0.00     0.110 C 
BRANCH   7   8
HETATM    8  C5  UNL     1       1.286   0.642  -1.236  1.00  0.00     0.053 C 
HETATM    9  C6  UNL     1       2.159   1.887  -1.295  1.00  0.00     0.015 C 
HETATM   10  C7  UNL     1       3.365   1.681  -0.406  1.00  0.00     0.096 C 
HETATM   11  C8  UNL     1       3.493   0.264   0.028  1.00  0.00     0.272 C 
HETATM   12  O1  UNL     1       3.912   0.039   1.206  1.00  0.00    -0.264 OA
HETATM   13  O2  UNL     1       3.162  -0.768  -0.839  1.00  0.00    -0.302 OA
HETATM   14  C9  UNL     1       2.081  -0.546  -1.738  1.00  0.00     0.154 C 
ENDBRANCH   7   8
ENDBRANCH   4   7
BRANCH   5  15
HETATM   15  C11 UNL     1      -2.084   0.400   0.229  1.00  0.00     0.115 A 
HETATM   16  C12 UNL     1      -3.448   0.291   0.247  1.00  0.00     0.022 A 
HETATM   17  C13 UNL     1      -4.276   1.400   0.074  1.00  0.00     0.003 A 
HETATM   18  C14 UNL     1      -3.713   2.644  -0.121  1.00  0.00     0.021 A 
HETATM   19  C15 UNL     1      -2.335   2.718  -0.134  1.00  0.00     0.099 A 
HETATM   20  N3  UNL     1      -1.562   1.624   0.037  1.00  0.00    -0.241 NA
ENDBRANCH   5  15
TORSDOF 3
