REMARK  4 active torsions:
REMARK  status: ('A' for Active; 'I' for Inactive)
REMARK    1  A    between atoms: C4_5  and  N1_8 
REMARK       I    between atoms: N2_11  and  C11_14 
REMARK    2  A    between atoms: C11_14  and  C12_16 
REMARK    3  A    between atoms: C12_16  and  C13_17 
REMARK    4  A    between atoms: C12_16  and  N4_23 
ROOT
HETATM    1  N1  UNL     1       2.420  -0.811  -0.230  1.00  0.00    -0.344 N 
HETATM    2  C7  UNL     1       2.027  -1.169  -1.568  1.00  0.00     0.126 C 
HETATM    3  C8  UNL     1       0.894  -0.243  -1.945  1.00  0.00     0.128 C 
HETATM    4  N2  UNL     1      -0.192  -0.473  -1.036  1.00  0.00    -0.314 N 
HETATM    5  C9  UNL     1       0.037  -1.091   0.234  1.00  0.00     0.128 C 
HETATM    6  C10 UNL     1       1.415  -0.839   0.804  1.00  0.00     0.126 C 
HETATM    7  C11 UNL     1      -1.502  -0.078  -1.395  1.00  0.00     0.271 C 
HETATM    8  O1  UNL     1      -1.733   0.492  -2.523  1.00  0.00    -0.270 OA
ENDROOT
BRANCH   7   9
HETATM    9  C12 UNL     1      -2.693  -0.262  -0.560  1.00  0.00     0.336 C 
BRANCH   9  10
HETATM   10  C13 UNL     1      -3.333   1.076  -0.399  1.00  0.00     0.099 A 
HETATM   11  C14 UNL     1      -4.430   1.156   0.409  1.00  0.00     0.017 A 
HETATM   12  C15 UNL     1      -5.058   2.362   0.593  1.00  0.00     0.003 A 
HETATM   13  C16 UNL     1      -4.591   3.498  -0.032  1.00  0.00     0.021 A 
HETATM   14  C17 UNL     1      -3.480   3.336  -0.831  1.00  0.00     0.099 A 
HETATM   15  N3  UNL     1      -2.870   2.157  -1.008  1.00  0.00    -0.246 NA
ENDBRANCH   9  10
BRANCH   9  16
HETATM   16  N4  UNL     1      -2.506  -0.978   0.655  1.00  0.00     0.150 N 
HETATM   17  C18 UNL     1      -3.729  -0.835   1.455  1.00  0.00     0.251 C 
HETATM   18  C19 UNL     1      -3.876  -2.143   2.193  1.00  0.00     0.037 C 
HETATM   19  C20 UNL     1      -2.861  -3.096   1.604  1.00  0.00     0.037 C 
HETATM   20  C21 UNL     1      -2.496  -2.412   0.306  1.00  0.00     0.251 C 
ENDBRANCH   9  16
ENDBRANCH   7   9
BRANCH   1  21
HETATM   21  C4  UNL     1       3.748  -0.445   0.039  1.00  0.00     0.056 A 
HETATM   22  C3  UNL     1       4.738  -0.414  -0.919  1.00  0.00     0.018 A 
HETATM   23  C2  UNL     1       6.042  -0.056  -0.669  1.00  0.00     0.013 A 
HETATM   24  C1  UNL     1       6.393   0.294   0.608  1.00  0.00     0.058 A 
HETATM   25 CL1  UNL     1       8.022   0.774   1.070  1.00  0.00    -0.082 Cl
HETATM   26  C6  UNL     1       5.446   0.280   1.598  1.00  0.00     0.013 A 
HETATM   27  C5  UNL     1       4.169  -0.078   1.317  1.00  0.00     0.018 A 
ENDBRANCH   1  21
TORSDOF 4
