REMARK  2 active torsions:
REMARK  status: ('A' for Active; 'I' for Inactive)
REMARK    1  A    between atoms: C2_4  and  N2_5 
REMARK    2  A    between atoms: N2_5  and  C3_6 
ROOT
HETATM    1  O1  UNL     1      -3.822  -1.945  -0.055  1.00  0.00    -0.146 OA
HETATM    2  C1  UNL     1      -2.769  -1.057   0.086  1.00  0.00     0.320 A 
HETATM    3  N1  UNL     1      -1.507  -1.419  -0.199  1.00  0.00    -0.013 NA
HETATM    4  C2  UNL     1      -0.450  -0.601  -0.080  1.00  0.00     0.759 A 
HETATM    5  N5  UNL     1      -0.666   0.649   0.347  1.00  0.00     0.000 NA
HETATM    6  C5  UNL     1      -1.915   1.044   0.641  1.00  0.00     0.387 A 
HETATM    7  O2  UNL     1      -2.180   2.219   1.051  1.00  0.00    -0.242 OA
HETATM    8  N6  UNL     1      -2.952   0.213   0.516  1.00  0.00    -0.146 NA
ENDROOT
BRANCH   4   9
HETATM    9  N2  UNL     1       0.814  -1.113  -0.414  1.00  0.00    -0.032 NA
BRANCH   9  10
HETATM   10  C3  UNL     1       1.981  -0.295  -0.310  1.00  0.00     0.234 A 
HETATM   11  N3  UNL     1       3.231  -0.643  -0.590  1.00  0.00    -0.120 NA
HETATM   12  N4  UNL     1       4.164   0.195  -0.448  1.00  0.00    -0.137 NA
HETATM   13  C4  UNL     1       3.886   1.423  -0.019  1.00  0.00     0.161 A 
HETATM   14  S1  UNL     1       2.186   1.330   0.180  1.00  0.00    -0.023 SA
ENDBRANCH   9  10
ENDBRANCH   4   9
TORSDOF 2
