REMARK  6 active torsions:
REMARK  status: ('A' for Active; 'I' for Inactive)
REMARK    1  A    between atoms: C2_2  and  N1_4 
REMARK    2  A    between atoms: N1_4  and  C4_5 
REMARK    3  A    between atoms: N1_4  and  S1_13 
REMARK    4  A    between atoms: C4_5  and  C5_6 
REMARK    5  A    between atoms: S1_13  and  C10_16 
REMARK    6  A    between atoms: C10_16  and  C11_17 
ROOT
HETATM    1  N1  UNL     1       0.153  -2.187   0.781  1.00  0.00    -0.175 NA
ENDROOT
BRANCH   1   2
HETATM    2  C2  UNL     1      -0.949  -2.349  -0.105  1.00  0.00     0.073 C 
HETATM    3  C1  UNL     1      -2.291  -2.543   0.452  1.00  0.00     0.018 C 
HETATM    4  C3  UNL     1      -0.916  -1.590  -1.378  1.00  0.00     0.018 C 
ENDBRANCH   1   2
BRANCH   1   5
HETATM    5  C4  UNL     1      -0.026  -1.009   1.556  1.00  0.00     0.133 C 
BRANCH   5   6
HETATM    6  C5  UNL     1      -1.148  -0.132   1.178  1.00  0.00     0.076 A 
HETATM    7  C6  UNL     1      -2.275  -0.194   2.020  1.00  0.00     0.017 A 
HETATM    8  C7  UNL     1      -3.388   0.578   1.778  1.00  0.00     0.014 A 
HETATM    9  C8  UNL     1      -3.379   1.415   0.693  1.00  0.00     0.077 A 
HETATM   10 CL1  UNL     1      -4.734   2.434   0.292  1.00  0.00    -0.081 Cl
HETATM   11  C9  UNL     1      -2.268   1.466  -0.126  1.00  0.00     0.110 A 
HETATM   12  N2  UNL     1      -1.199   0.703   0.136  1.00  0.00    -0.246 NA
ENDBRANCH   5   6
ENDBRANCH   1   5
BRANCH   1  13
HETATM   13  S1  UNL     1       1.615  -2.153  -0.112  1.00  0.00     0.231 S 
HETATM   14  O1  UNL     1       1.663  -3.462  -0.923  1.00  0.00    -0.210 OA
HETATM   15  O2  UNL     1       2.812  -2.275   0.840  1.00  0.00    -0.210 OA
BRANCH  13  16
HETATM   16  C10 UNL     1       1.823  -0.871  -1.246  1.00  0.00     0.165 C 
BRANCH  16  17
HETATM   17  C11 UNL     1       1.930   0.491  -0.756  1.00  0.00    -0.009 A 
HETATM   18  C12 UNL     1       1.984   0.787   0.577  1.00  0.00    -0.004 A 
HETATM   19  C13 UNL     1       2.142   2.111   1.012  1.00  0.00    -0.000 A 
HETATM   20  C14 UNL     1       2.245   3.136   0.096  1.00  0.00    -0.000 A 
HETATM   21  C15 UNL     1       2.190   2.843  -1.240  1.00  0.00    -0.004 A 
HETATM   22  C16 UNL     1       2.033   1.518  -1.665  1.00  0.00    -0.025 A 
HETATM   23  C17 UNL     1       1.982   1.283  -3.116  1.00  0.00     0.031 C 
ENDBRANCH  16  17
ENDBRANCH  13  16
ENDBRANCH   1  13
TORSDOF 6
