REMARK  9 active torsions:
REMARK  status: ('A' for Active; 'I' for Inactive)
REMARK    1  A    between atoms: O1_2  and  C2_3 
REMARK    2  A    between atoms: C5_6  and  C8_9 
REMARK    3  A    between atoms: C8_9  and  C9_11 
REMARK    4  A    between atoms: C9_11  and  C10_12 
REMARK    5  A    between atoms: C10_12  and  O3_13 
REMARK    6  A    between atoms: C10_12  and  C23_27 
REMARK    7  A    between atoms: O3_13  and  C11_14 
REMARK    8  A    between atoms: C14_17  and  O4_20 
REMARK    9  A    between atoms: O4_20  and  C17_21 
REMARK       I    between atoms: C23_27  and  N1_29 
ROOT
HETATM    1  C10 UNL     1      -0.577   0.555  -0.826  1.00  0.00     0.135 C 
ENDROOT
BRANCH   1   2
HETATM    2  C9  UNL     1      -0.852  -0.288   0.318  1.00  0.00     0.125 C 
BRANCH   2   3
HETATM    3  C8  UNL     1      -1.931   0.158   1.207  1.00  0.00     0.180 C 
HETATM    4  O2  UNL     1      -1.661   1.055   2.051  1.00  0.00    -0.291 OA
BRANCH   3   5
HETATM    5  C5  UNL     1      -3.260  -0.391   1.138  1.00  0.00     0.035 A 
HETATM    6  C4  UNL     1      -4.219   0.082   2.006  1.00  0.00     0.005 A 
HETATM    7  C3  UNL     1      -5.495  -0.428   1.956  1.00  0.00     0.024 A 
HETATM    8  C2  UNL     1      -5.879  -1.410   1.066  1.00  0.00     0.094 A 
HETATM    9  C7  UNL     1      -4.907  -1.872   0.204  1.00  0.00     0.024 A 
HETATM   10  C6  UNL     1      -3.618  -1.378   0.232  1.00  0.00     0.005 A 
BRANCH   8  11
HETATM   11  O1  UNL     1      -7.174  -1.920   1.022  1.00  0.00    -0.328 OA
HETATM   12  C1  UNL     1      -8.200  -1.491   1.869  1.00  0.00     0.181 C 
ENDBRANCH   8  11
ENDBRANCH   3   5
ENDBRANCH   2   3
ENDBRANCH   1   2
BRANCH   1  13
HETATM   13  O3  UNL     1       0.393   0.228  -1.693  1.00  0.00    -0.332 OA
BRANCH  13  14
HETATM   14  C11 UNL     1       1.605   0.184  -1.004  1.00  0.00     0.121 C 
HETATM   15  C12 UNL     1       1.800   1.589  -0.423  1.00  0.00     0.033 C 
HETATM   16  C13 UNL     1       2.167   1.515   1.043  1.00  0.00     0.033 C 
HETATM   17  C14 UNL     1       3.281   0.466   1.136  1.00  0.00     0.121 C 
HETATM   18  C15 UNL     1       2.619  -0.888   1.019  1.00  0.00     0.033 C 
HETATM   19  C16 UNL     1       1.441  -0.837   0.098  1.00  0.00     0.033 C 
BRANCH  17  20
HETATM   20  O4  UNL     1       4.096   0.663   0.007  1.00  0.00    -0.333 OA
BRANCH  20  21
HETATM   21  C17 UNL     1       5.215  -0.118  -0.239  1.00  0.00     0.094 A 
HETATM   22  C18 UNL     1       5.536  -1.125   0.660  1.00  0.00     0.024 A 
HETATM   23  C19 UNL     1       6.645  -1.895   0.411  1.00  0.00     0.002 A 
HETATM   24  C20 UNL     1       7.417  -1.687  -0.688  1.00  0.00     0.000 A 
HETATM   25  C21 UNL     1       7.078  -0.679  -1.570  1.00  0.00     0.002 A 
HETATM   26  C22 UNL     1       5.979   0.121  -1.367  1.00  0.00     0.024 A 
ENDBRANCH  20  21
ENDBRANCH  17  20
ENDBRANCH  13  14
ENDBRANCH   1  13
BRANCH   1  27
HETATM   27  C23 UNL     1      -1.433   1.670  -1.121  1.00  0.00     0.276 C 
HETATM   28  O5  UNL     1      -2.340   1.980  -0.312  1.00  0.00    -0.266 OA
HETATM   29  N1  UNL     1      -1.293   2.445  -2.303  1.00  0.00    -0.311 N 
HETATM   30  C24 UNL     1      -0.267   2.155  -3.297  1.00  0.00     0.129 C 
HETATM   31  C25 UNL     1      -2.166   3.577  -2.599  1.00  0.00     0.129 C 
ENDBRANCH   1  27
TORSDOF 9
