REMARK  3 active torsions:
REMARK  status: ('A' for Active; 'I' for Inactive)
REMARK       I    between atoms: C1_2  and  N1_3 
REMARK       I    between atoms: C1_2  and  N3_15 
REMARK    1  A    between atoms: N1_3  and  C2_4 
REMARK    2  A    between atoms: C2_4  and  C3_5 
REMARK    3  A    between atoms: C3_5  and  C4_6 
ROOT
HETATM    1  C2  UNL     1       0.250  -0.371  -0.946  1.00  0.00     0.137 C 
ENDROOT
BRANCH   1   2
HETATM    2  N1  UNL     1      -1.130   0.045  -0.821  1.00  0.00    -0.218 NA
HETATM    3  C1  UNL     1      -2.046  -0.655   0.003  1.00  0.00     0.342 C 
HETATM    4  O1  UNL     1      -1.627  -1.656   0.632  1.00  0.00    -0.245 OA
HETATM    5  N3  UNL     1      -3.383  -0.245   0.120  1.00  0.00    -0.303 N 
HETATM    6  C11 UNL     1      -4.420  -0.874   0.953  1.00  0.00     0.106 C 
HETATM    7  C14 UNL     1      -3.964   0.887  -0.586  1.00  0.00     0.086 C 
HETATM    8  C12 UNL     1      -5.651  -0.024   0.696  1.00  0.00     0.024 C 
HETATM    9  C13 UNL     1      -5.396   0.346  -0.777  1.00  0.00     0.024 C 
HETATM   10  C16 UNL     1      -5.348   1.334   1.345  1.00  0.00     0.004 C 
HETATM   11  C15 UNL     1      -4.254   1.934   0.482  1.00  0.00     0.022 C 
ENDBRANCH   1   2
BRANCH   1  12
HETATM   12  C3  UNL     1       0.865  -0.327   0.457  1.00  0.00     0.075 C 
BRANCH  12  13
HETATM   13  C4  UNL     1       2.286  -0.736   0.331  1.00  0.00     0.090 A 
HETATM   14  N2  UNL     1       2.891  -1.889   0.611  1.00  0.00    -0.131 NA
HETATM   15  O2  UNL     1       4.147  -1.811   0.344  1.00  0.00    -0.211 OA
HETATM   16  C5  UNL     1       4.448  -0.627  -0.120  1.00  0.00     0.126 A 
HETATM   17  C6  UNL     1       5.661  -0.061  -0.546  1.00  0.00     0.027 A 
HETATM   18  C10 UNL     1       3.284   0.100  -0.146  1.00  0.00     0.041 A 
HETATM   19  C7  UNL     1       5.627   1.237  -0.983  1.00  0.00     0.002 A 
HETATM   20  C8  UNL     1       4.470   1.981  -1.017  1.00  0.00     0.000 A 
HETATM   21  C9  UNL     1       3.289   1.411  -0.596  1.00  0.00     0.003 A 
ENDBRANCH  12  13
ENDBRANCH   1  12
TORSDOF 3
