REMARK  4 active torsions:
REMARK  status: ('A' for Active; 'I' for Inactive)
REMARK       I    between atoms: C2_2  and  N1_4 
REMARK    1  A    between atoms: N1_4  and  C3_5 
REMARK    2  A    between atoms: C7_9  and  C8_10 
REMARK    3  A    between atoms: C13_15  and  S1_16 
REMARK    4  A    between atoms: S1_16  and  N2_19 
ROOT
HETATM    1  C8  UNL     1       0.022   0.163  -1.189  1.00  0.00     0.012 A 
HETATM    2  C9  UNL     1       0.285   0.734  -2.452  1.00  0.00     0.001 A 
HETATM    3  C10 UNL     1      -0.731   1.235  -3.219  1.00  0.00     0.000 A 
HETATM    4  C11 UNL     1      -2.026   1.185  -2.765  1.00  0.00     0.001 A 
HETATM    5  C12 UNL     1      -2.282   0.631  -1.541  1.00  0.00     0.012 A 
HETATM    6  C13 UNL     1      -1.269   0.113  -0.735  1.00  0.00     0.098 A 
ENDROOT
BRANCH   1   7
HETATM    7  C7  UNL     1       1.162  -0.336  -0.432  1.00  0.00     0.002 A 
HETATM    8  C6  UNL     1       1.183  -1.569   0.163  1.00  0.00     0.000 A 
HETATM    9  C5  UNL     1       2.286  -1.997   0.870  1.00  0.00     0.002 A 
HETATM   10  C4  UNL     1       3.405  -1.171   0.989  1.00  0.00     0.019 A 
HETATM   11  C3  UNL     1       3.409   0.073   0.400  1.00  0.00     0.084 A 
HETATM   12  C18 UNL     1       2.299   0.480  -0.299  1.00  0.00     0.019 A 
BRANCH  11  13
HETATM   13  N1  UNL     1       4.563   0.931   0.520  1.00  0.00    -0.212 NA
HETATM   14  C2  UNL     1       5.692   0.476   1.251  1.00  0.00     0.256 C 
HETATM   15  C1  UNL     1       6.923   1.327   1.410  1.00  0.00     0.100 C 
HETATM   16  O1  UNL     1       5.624  -0.671   1.765  1.00  0.00    -0.270 OA
ENDBRANCH  11  13
ENDBRANCH   1   7
BRANCH   6  17
HETATM   17  S1  UNL     1      -1.678  -0.584   0.795  1.00  0.00     0.247 S 
HETATM   18  O2  UNL     1      -0.960   0.038   1.955  1.00  0.00    -0.206 OA
HETATM   19  O3  UNL     1      -1.352  -2.077   0.814  1.00  0.00    -0.206 OA
BRANCH  17  20
HETATM   20  N2  UNL     1      -3.375  -0.380   1.089  1.00  0.00    -0.172 NA
HETATM   21  C14 UNL     1      -3.716   0.997   1.141  1.00  0.00     0.120 C 
HETATM   22  C15 UNL     1      -4.548   1.511   0.020  1.00  0.00     0.161 C 
HETATM   23  O4  UNL     1      -5.632   0.653  -0.160  1.00  0.00    -0.351 OA
HETATM   24  C16 UNL     1      -5.087  -0.540  -0.680  1.00  0.00     0.161 C 
HETATM   25  C17 UNL     1      -4.194  -1.221   0.298  1.00  0.00     0.120 C 
ENDBRANCH  17  20
ENDBRANCH   6  17
TORSDOF 4
