REMARK  1 active torsions:
REMARK  status: ('A' for Active; 'I' for Inactive)
REMARK    1  A    between atoms: C1_3  and  C2_4 
ROOT
HETATM    1  C2  UNL     1       0.524  -0.512  -0.256  1.00  0.00     0.049 A 
HETATM    2  C3  UNL     1       0.753   0.819   0.069  1.00  0.00     0.015 A 
HETATM    3  C4  UNL     1      -0.251   1.643   0.516  1.00  0.00     0.059 A 
HETATM    4 CL1  UNL     1       0.008   3.324   0.933  1.00  0.00    -0.082 Cl
HETATM    5  C5  UNL     1      -1.525   1.102   0.636  1.00  0.00     0.025 A 
HETATM    6  C6  UNL     1      -1.796  -0.211   0.324  1.00  0.00     0.084 A 
HETATM    7 CL2  UNL     1      -3.430  -0.815   0.503  1.00  0.00    -0.080 Cl
HETATM    8  C7  UNL     1      -0.755  -1.005  -0.122  1.00  0.00     0.143 A 
HETATM    9  O2  UNL     1      -1.059  -2.329  -0.429  1.00  0.00    -0.189 OA
ENDROOT
BRANCH   1  10
HETATM   10  C1  UNL     1       1.587  -1.392  -0.730  1.00  0.00     0.133 C 
HETATM   11  N1  UNL     1       2.793  -0.960  -0.866  1.00  0.00    -0.095 NA
HETATM   12  O1  UNL     1       3.150   0.336  -0.578  1.00  0.00    -0.061 OA
ENDBRANCH   1  10
TORSDOF 1
