REMARK  3 active torsions:
REMARK  status: ('A' for Active; 'I' for Inactive)
REMARK    1  A    between atoms: C2_2  and  O1_3 
REMARK    2  A    between atoms: O1_3  and  C3_4 
REMARK    3  A    between atoms: C3_4  and  C4_6 
ROOT
HETATM    1  C4  UNL     1       1.597   0.186  -0.093  1.00  0.00     0.063 C 
HETATM    2  C5  UNL     1       0.488  -0.487  -0.360  1.00  0.00     0.005 C 
HETATM    3  C6  UNL     1      -0.921  -0.093  -0.138  1.00  0.00     0.001 A 
HETATM    4  C7  UNL     1      -1.576   1.087   0.180  1.00  0.00    -0.003 A 
HETATM    5  C8  UNL     1      -2.943   1.156   0.328  1.00  0.00     0.096 A 
HETATM    6  N1  UNL     1      -3.627   0.001   0.146  1.00  0.00    -0.226 NA
HETATM    7  C9  UNL     1      -3.020  -1.153  -0.162  1.00  0.00     0.163 A 
HETATM    8  N2  UNL     1      -3.551  -2.367  -0.371  1.00  0.00    -0.215 NA
HETATM    9  C10 UNL     1      -2.541  -3.227  -0.655  1.00  0.00     0.140 A 
HETATM   10 CL1  UNL     1      -2.832  -4.924  -0.992  1.00  0.00    -0.061 Cl
HETATM   11  C11 UNL     1      -1.330  -2.555  -0.628  1.00  0.00     0.034 A 
HETATM   12  C12 UNL     1      -1.638  -1.258  -0.319  1.00  0.00     0.038 A 
HETATM   13  C13 UNL     1      -1.029   2.455   0.421  1.00  0.00     0.024 C 
HETATM   14  C14 UNL     1      -2.215   3.374   0.605  1.00  0.00     0.005 C 
HETATM   15  C15 UNL     1      -0.312   2.861  -0.853  1.00  0.00     0.005 C 
HETATM   16  C16 UNL     1      -0.129   2.486   1.616  1.00  0.00     0.026 C 
HETATM   17  C17 UNL     1       1.277   2.436   1.169  1.00  0.00    -0.043 C 
HETATM   18  C18 UNL     1       2.114   3.612   1.529  1.00  0.00     0.026 C 
HETATM   19  C19 UNL     1       1.935   1.490   0.482  1.00  0.00    -0.003 C 
ENDROOT
BRANCH   1  20
HETATM   20  C3  UNL     1       2.804  -0.562  -0.468  1.00  0.00     0.296 C 
HETATM   21  O2  UNL     1       2.707  -1.708  -0.979  1.00  0.00    -0.259 OA
BRANCH  20  22
HETATM   22  O1  UNL     1       4.073  -0.049  -0.278  1.00  0.00    -0.298 OA
BRANCH  22  23
HETATM   23  C2  UNL     1       5.253  -0.724  -0.619  1.00  0.00     0.152 C 
HETATM   24  C1  UNL     1       5.417  -2.038   0.101  1.00  0.00     0.035 C 
ENDBRANCH  22  23
ENDBRANCH  20  22
ENDBRANCH   1  20
TORSDOF 3
