REMARK  8 active torsions:
REMARK  status: ('A' for Active; 'I' for Inactive)
REMARK    1  A    between atoms: O1_2  and  C2_3 
REMARK    2  A    between atoms: C5_6  and  C9_11 
REMARK    3  A    between atoms: C7_8  and  O2_9 
REMARK    4  A    between atoms: C9_11  and  O4_13 
REMARK    5  A    between atoms: O4_13  and  C10_14 
REMARK    6  A    between atoms: C10_14  and  C11_15 
REMARK       I    between atoms: C11_15  and  N1_17 
REMARK    7  A    between atoms: N1_17  and  C12_18 
REMARK    8  A    between atoms: C16_23  and  O6_24 
ROOT
HETATM    1  C10 UNL     1      -0.476  -2.490  -1.638  1.00  0.00     0.241 C 
ENDROOT
BRANCH   1   2
HETATM    2  O4  UNL     1      -1.681  -2.163  -0.992  1.00  0.00    -0.288 OA
BRANCH   2   3
HETATM    3  C9  UNL     1      -2.197  -0.877  -0.975  1.00  0.00     0.296 C 
HETATM    4  O3  UNL     1      -1.552   0.025  -1.564  1.00  0.00    -0.259 OA
BRANCH   3   5
HETATM    5  C5  UNL     1      -3.460  -0.593  -0.284  1.00  0.00     0.065 A 
HETATM    6  C4  UNL     1      -4.169  -1.582   0.363  1.00  0.00     0.007 A 
HETATM    7  C3  UNL     1      -5.370  -1.295   1.016  1.00  0.00     0.026 A 
HETATM    8  C2  UNL     1      -5.864  -0.016   1.022  1.00  0.00     0.116 A 
HETATM    9  C7  UNL     1      -5.170   1.001   0.376  1.00  0.00     0.116 A 
HETATM   10  C6  UNL     1      -3.979   0.684  -0.263  1.00  0.00     0.032 A 
BRANCH   8  11
HETATM   11  O1  UNL     1      -7.045   0.346   1.646  1.00  0.00    -0.326 OA
HETATM   12  C1  UNL     1      -7.876  -0.541   2.342  1.00  0.00     0.181 C 
ENDBRANCH   8  11
BRANCH   9  13
HETATM   13  O2  UNL     1      -5.668   2.303   0.380  1.00  0.00    -0.326 OA
HETATM   14  C8  UNL     1      -4.928   3.303  -0.289  1.00  0.00     0.181 C 
ENDBRANCH   9  13
ENDBRANCH   3   5
ENDBRANCH   2   3
ENDBRANCH   1   2
BRANCH   1  15
HETATM   15  C11 UNL     1       0.676  -1.736  -1.082  1.00  0.00     0.289 C 
HETATM   16  O5  UNL     1       0.460  -0.930  -0.145  1.00  0.00    -0.267 OA
HETATM   17  N1  UNL     1       2.007  -1.873  -1.549  1.00  0.00    -0.168 NA
BRANCH  17  18
HETATM   18  C12 UNL     1       3.071  -1.111  -0.964  1.00  0.00     0.277 A 
HETATM   19  N2  UNL     1       4.354  -1.191  -1.356  1.00  0.00    -0.203 NA
HETATM   20  C13 UNL     1       5.094  -0.353  -0.611  1.00  0.00     0.108 A 
HETATM   21  C14 UNL     1       6.449  -0.030  -0.578  1.00  0.00     0.023 A 
HETATM   22  C19 UNL     1       4.221   0.251   0.260  1.00  0.00     0.123 A 
HETATM   23  C15 UNL     1       6.939   0.894   0.322  1.00  0.00     0.026 A 
HETATM   24  C16 UNL     1       6.067   1.504   1.200  1.00  0.00     0.096 A 
HETATM   25  C18 UNL     1       4.744   1.168   1.145  1.00  0.00     0.051 A 
HETATM   26  O7  UNL     1       3.032  -0.240   0.003  1.00  0.00    -0.273 OA
BRANCH  24  27
HETATM   27  O6  UNL     1       6.580   2.445   2.113  1.00  0.00    -0.328 OA
HETATM   28  C17 UNL     1       5.740   3.098   3.030  1.00  0.00     0.181 C 
ENDBRANCH  24  27
ENDBRANCH  17  18
ENDBRANCH   1  15
TORSDOF 8
