REMARK  2 active torsions:
REMARK  status: ('A' for Active; 'I' for Inactive)
REMARK    1  A    between atoms: C1_2  and  C2_5 
REMARK    2  A    between atoms: C5_8  and  C8_12 
ROOT
HETATM    1  C2  UNL     1      -2.040  -0.261  -0.115  1.00  0.00     0.082 A 
HETATM    2  C3  UNL     1      -1.313  -1.274   0.472  1.00  0.00     0.005 A 
HETATM    3  C4  UNL     1       0.062  -1.208   0.601  1.00  0.00    -0.000 A 
HETATM    4  C5  UNL     1       0.751  -0.110   0.139  1.00  0.00    -0.003 A 
HETATM    5  C6  UNL     1       0.022   0.900  -0.447  1.00  0.00     0.011 A 
HETATM    6  C7  UNL     1      -1.365   0.845  -0.583  1.00  0.00     0.062 A 
HETATM    7 CL1  UNL     1      -2.261   2.147  -1.333  1.00  0.00    -0.082 Cl
ENDROOT
BRANCH   4   8
HETATM    8  C8  UNL     1       2.217  -0.016   0.266  1.00  0.00    -0.021 C 
HETATM    9  C9  UNL     1       2.882   1.022  -0.169  1.00  0.00     0.002 C 
HETATM   10  C10 UNL     1       4.351   1.195  -0.082  1.00  0.00     0.168 C 
HETATM   11  O1  UNL     1       4.952   0.021   0.359  1.00  0.00    -0.349 OA
HETATM   12  C11 UNL     1       4.270  -0.531   1.446  1.00  0.00     0.147 C 
HETATM   13  C12 UNL     1       2.987  -1.116   0.901  1.00  0.00     0.058 C 
ENDBRANCH   4   8
BRANCH   1  14
HETATM   14  C1  UNL     1      -3.516  -0.381  -0.230  1.00  0.00     0.420 C 
HETATM   15  F1  UNL     1      -4.143   0.669   0.454  1.00  0.00    -0.166 F 
HETATM   16  F2  UNL     1      -3.936  -1.537   0.364  1.00  0.00    -0.166 F 
HETATM   17  F3  UNL     1      -3.920  -0.366  -1.565  1.00  0.00    -0.166 F 
ENDBRANCH   1  14
TORSDOF 2
