REMARK  3 active torsions:
REMARK  status: ('A' for Active; 'I' for Inactive)
REMARK    1  A    between atoms: C2_2  and  C3_4 
REMARK    2  A    between atoms: C7_8  and  N1_9 
REMARK    3  A    between atoms: N1_9  and  C8_10 
ROOT
HETATM    1  C3  UNL     1      -2.308  -0.368   0.014  1.00  0.00     0.047 A 
HETATM    2  C4  UNL     1      -2.157  -1.485   0.835  1.00  0.00     0.004 A 
HETATM    3  C5  UNL     1      -0.882  -1.761   1.268  1.00  0.00     0.002 A 
HETATM    4  C6  UNL     1       0.207  -0.982   0.917  1.00  0.00     0.020 A 
HETATM    5  C7  UNL     1       0.044   0.139   0.095  1.00  0.00     0.094 A 
HETATM    6  C10 UNL     1      -1.232   0.418  -0.342  1.00  0.00     0.078 A 
HETATM    7 CL1  UNL     1      -1.422   1.830  -1.400  1.00  0.00    -0.081 Cl
ENDROOT
BRANCH   5   8
HETATM    8  N1  UNL     1       1.116   1.009  -0.246  1.00  0.00    -0.219 NA
BRANCH   8   9
HETATM    9  C8  UNL     1       2.476   0.645   0.023  1.00  0.00     0.216 A 
HETATM   10  N2  UNL     1       3.580   1.373  -0.151  1.00  0.00    -0.121 NA
HETATM   11  N3  UNL     1       4.703   0.862   0.092  1.00  0.00    -0.137 NA
HETATM   12  C9  UNL     1       4.808  -0.388   0.513  1.00  0.00     0.161 A 
HETATM   13  S1  UNL     1       3.140  -0.853   0.561  1.00  0.00    -0.024 SA
ENDBRANCH   8   9
ENDBRANCH   5   8
BRANCH   1  14
HETATM   14  C2  UNL     1      -3.612  -0.022  -0.509  1.00  0.00     0.174 C 
HETATM   15  C1  UNL     1      -3.953  -0.103  -1.947  1.00  0.00     0.077 C 
HETATM   16  O1  UNL     1      -4.509   0.367   0.276  1.00  0.00    -0.291 OA
ENDBRANCH   1  14
TORSDOF 3
