REMARK  4 active torsions:
REMARK  status: ('A' for Active; 'I' for Inactive)
REMARK       I    between atoms: C1_2  and  N1_3 
REMARK       I    between atoms: C1_2  and  N2_18 
REMARK    1  A    between atoms: N1_3  and  C2_4 
REMARK    2  A    between atoms: C19_22  and  N3_23 
REMARK    3  A    between atoms: N3_23  and  C20_24 
REMARK    4  A    between atoms: C24_28  and  C26_30 
ROOT
HETATM    1  O1  UNL     1      -2.556  -1.041   0.788  1.00  0.00    -0.244 OA
HETATM    2  C1  UNL     1      -1.547  -0.442   0.343  1.00  0.00     0.350 C 
HETATM    3  N1  UNL     1      -1.807   0.664  -0.503  1.00  0.00    -0.220 NA
HETATM    4  N2  UNL     1      -0.235  -0.868   0.686  1.00  0.00    -0.257 N 
HETATM    5  C16 UNL     1       0.050  -1.901   1.485  1.00  0.00     0.085 A 
HETATM    6  C17 UNL     1       1.402  -2.050   1.633  1.00  0.00     0.022 A 
HETATM    7  C18 UNL     1       1.992  -1.050   0.881  1.00  0.00     0.038 A 
HETATM    8  C19 UNL     1       3.320  -0.704   0.645  1.00  0.00     0.102 A 
HETATM    9  C27 UNL     1       3.531   0.383  -0.189  1.00  0.00     0.118 A 
HETATM   10  N4  UNL     1       2.538   1.080  -0.750  1.00  0.00    -0.239 NA
HETATM   11  C28 UNL     1       1.257   0.716  -0.500  1.00  0.00     0.117 A 
HETATM   12  C29 UNL     1       0.931  -0.336   0.306  1.00  0.00     0.089 A 
ENDROOT
BRANCH   3  13
HETATM   13  C2  UNL     1      -3.124   1.133  -0.870  1.00  0.00     0.113 C 
HETATM   14  C3  UNL     1      -3.604   2.236   0.050  1.00  0.00     0.029 C 
HETATM   15  C4  UNL     1      -4.137   1.601   1.348  1.00  0.00     0.024 C 
HETATM   16  C5  UNL     1      -5.290   0.781   0.912  1.00  0.00    -0.048 C 
HETATM   17  C6  UNL     1      -5.354   0.309  -0.322  1.00  0.00    -0.028 C 
HETATM   18  C15 UNL     1      -6.407   0.477   1.847  1.00  0.00     0.026 C 
HETATM   19  C7  UNL     1      -4.115   0.052  -1.102  1.00  0.00     0.050 C 
HETATM   20  C8  UNL     1      -6.651   0.008  -0.958  1.00  0.00    -0.009 A 
HETATM   21  C9  UNL     1      -6.674  -0.490  -2.269  1.00  0.00    -0.001 A 
HETATM   22  C13 UNL     1      -7.789   0.233  -0.231  1.00  0.00    -0.022 A 
HETATM   23  C10 UNL     1      -7.920  -0.744  -2.788  1.00  0.00    -0.000 A 
HETATM   24  C11 UNL     1      -9.063  -0.526  -2.077  1.00  0.00    -0.000 A 
HETATM   25  C12 UNL     1      -9.021  -0.040  -0.802  1.00  0.00    -0.004 A 
HETATM   26  C14 UNL     1      -7.709   0.766   1.136  1.00  0.00     0.031 C 
ENDBRANCH   3  13
BRANCH   8  27
HETATM   27  N3  UNL     1       4.386  -1.427   1.254  1.00  0.00    -0.244 NA
BRANCH  27  28
HETATM   28  C20 UNL     1       5.721  -1.065   0.986  1.00  0.00     0.081 A 
HETATM   29  C21 UNL     1       6.752  -1.614   1.748  1.00  0.00     0.019 A 
HETATM   30  C22 UNL     1       8.088  -1.274   1.510  1.00  0.00     0.002 A 
HETATM   31  C23 UNL     1       8.380  -0.369   0.488  1.00  0.00     0.004 A 
HETATM   32  C24 UNL     1       7.358   0.178  -0.274  1.00  0.00     0.073 A 
HETATM   33  C25 UNL     1       6.066  -0.182  -0.005  1.00  0.00     0.023 A 
BRANCH  32  34
HETATM   34  C26 UNL     1       7.711   1.123  -1.347  1.00  0.00     0.419 C 
HETATM   35  F1  UNL     1       6.602   1.583  -2.042  1.00  0.00    -0.166 F 
HETATM   36  F2  UNL     1       8.354   2.243  -0.821  1.00  0.00    -0.166 F 
HETATM   37  F3  UNL     1       8.563   0.554  -2.281  1.00  0.00    -0.166 F 
ENDBRANCH  32  34
ENDBRANCH  27  28
ENDBRANCH   8  27
TORSDOF 4
