REMARK  7 active torsions:
REMARK  status: ('A' for Active; 'I' for Inactive)
REMARK    1  A    between atoms: S1_2  and  C2_5 
REMARK    2  A    between atoms: C6_9  and  N1_10 
REMARK    3  A    between atoms: N1_10  and  C7_11 
REMARK    4  A    between atoms: C8_13  and  N3_24 
REMARK    5  A    between atoms: C10_15  and  C11_16 
REMARK    6  A    between atoms: C11_16  and  C12_17 
REMARK    7  A    between atoms: C15_20  and  C16_21 
ROOT
HETATM    1  C7  UNL     1      -0.495  -0.602   0.435  1.00  0.00     0.165 A 
HETATM    2  N2  UNL     1      -0.092   0.667   0.292  1.00  0.00    -0.204 NA
HETATM    3  C8  UNL     1      -0.955   1.723   0.385  1.00  0.00     0.209 A 
HETATM    4  C9  UNL     1      -2.302   1.487   0.637  1.00  0.00     0.039 A 
HETATM    5  C10 UNL     1      -2.736   0.189   0.787  1.00  0.00    -0.015 A 
HETATM    6  C15 UNL     1      -1.831  -0.848   0.686  1.00  0.00     0.076 A 
ENDROOT
BRANCH   1   7
HETATM    7  N1  UNL     1       0.360  -1.716   0.354  1.00  0.00    -0.227 NA
BRANCH   7   8
HETATM    8  C6  UNL     1       1.756  -1.654   0.097  1.00  0.00     0.084 A 
HETATM    9  C5  UNL     1       2.535  -2.796   0.019  1.00  0.00     0.019 A 
HETATM   10  C4  UNL     1       3.889  -2.726  -0.228  1.00  0.00     0.002 A 
HETATM   11  C3  UNL     1       4.516  -1.513  -0.407  1.00  0.00     0.011 A 
HETATM   12  C2  UNL     1       3.751  -0.354  -0.333  1.00  0.00     0.085 A 
HETATM   13  C17 UNL     1       2.402  -0.450  -0.085  1.00  0.00     0.030 A 
BRANCH  12  14
HETATM   14  S1  UNL     1       4.522   1.217  -0.554  1.00  0.00     0.191 S 
HETATM   15  C1  UNL     1       5.051   1.841   1.018  1.00  0.00     0.145 C 
HETATM   16  O1  UNL     1       3.536   2.181  -1.126  1.00  0.00    -0.222 OA
HETATM   17  O2  UNL     1       5.699   1.037  -1.470  1.00  0.00    -0.222 OA
ENDBRANCH  12  14
ENDBRANCH   7   8
ENDBRANCH   1   7
BRANCH   6  18
HETATM   18  C16 UNL     1      -2.336  -2.257   0.853  1.00  0.00     0.344 C 
HETATM   19  F1  UNL     1      -3.086  -2.408   1.980  1.00  0.00    -0.193 F 
HETATM   20  F2  UNL     1      -2.996  -2.674  -0.286  1.00  0.00    -0.193 F 
ENDBRANCH   6  18
BRANCH   3  21
HETATM   21  N3  UNL     1      -0.474   3.043   0.226  1.00  0.00    -0.095 N 
HETATM   22  O3  UNL     1       0.846   3.249  -0.021  1.00  0.00    -0.530 OA
HETATM   23  O4  UNL     1      -1.267   3.986   0.314  1.00  0.00    -0.530 OA
ENDBRANCH   3  21
BRANCH   5  24
HETATM   24  C11 UNL     1      -4.161  -0.150   1.058  1.00  0.00     0.026 C 
BRANCH  24  25
HETATM   25  C12 UNL     1      -4.887  -0.676  -0.135  1.00  0.00     0.004 A 
HETATM   26  C13 UNL     1      -5.037   0.124  -1.374  1.00  0.00     0.000 A 
HETATM   27  C14 UNL     1      -6.208   0.078  -0.405  1.00  0.00     0.000 A 
ENDBRANCH  24  25
ENDBRANCH   5  24
TORSDOF 7
