REMARK  5 active torsions:
REMARK  status: ('A' for Active; 'I' for Inactive)
REMARK    1  A    between atoms: S1_2  and  C1_5 
REMARK    2  A    between atoms: C1_5  and  C2_6 
REMARK    3  A    between atoms: C2_6  and  C3_7 
REMARK    4  A    between atoms: C3_7  and  C4_8 
REMARK    5  A    between atoms: C9_13  and  N2_14 
ROOT
HETATM    1  C4  UNL     1      -0.722   0.128  -1.060  1.00  0.00    -0.022 A 
HETATM    2  C5  UNL     1      -0.775   0.668   0.200  1.00  0.00    -0.005 A 
HETATM    3  C6  UNL     1       0.329   0.873   1.000  1.00  0.00    -0.005 A 
HETATM    4  C7  UNL     1       1.573   0.519   0.522  1.00  0.00    -0.025 A 
HETATM    5  C8  UNL     1       2.824   0.694   1.293  1.00  0.00     0.046 C 
HETATM    6  C9  UNL     1       3.587  -0.591   1.249  1.00  0.00     0.113 C 
HETATM    7  C10 UNL     1       3.712  -1.191  -0.108  1.00  0.00     0.025 C 
HETATM    8  C11 UNL     1       3.060  -0.390  -1.195  1.00  0.00     0.028 C 
HETATM    9  C12 UNL     1       1.683  -0.030  -0.740  1.00  0.00    -0.026 A 
HETATM   10  C13 UNL     1       0.568  -0.214  -1.495  1.00  0.00    -0.009 A 
ENDROOT
BRANCH   1  11
HETATM   11  C3  UNL     1      -1.898  -0.100  -1.934  1.00  0.00     0.028 C 
BRANCH  11  12
HETATM   12  C2  UNL     1      -2.535  -1.436  -1.773  1.00  0.00     0.024 C 
BRANCH  12  13
HETATM   13  C1  UNL     1      -3.095  -1.721  -0.417  1.00  0.00     0.148 C 
BRANCH  13  14
HETATM   14  S1  UNL     1      -4.402  -0.619   0.052  1.00  0.00     0.282 S 
HETATM   15  N1  UNL     1      -4.982  -1.014   1.639  1.00  0.00    -0.047 N 
HETATM   16  O1  UNL     1      -5.527  -0.796  -0.966  1.00  0.00    -0.201 OA
HETATM   17  O2  UNL     1      -3.952   0.786  -0.029  1.00  0.00    -0.201 OA
ENDBRANCH  13  14
ENDBRANCH  12  13
ENDBRANCH  11  12
ENDBRANCH   1  11
BRANCH   6  18
HETATM   18  N2  UNL     1       4.890  -0.340   1.873  1.00  0.00    -0.038 NA
HETATM   19  F1  UNL     1       5.663  -1.430   1.889  1.00  0.00    -0.114 F 
ENDBRANCH   6  18
TORSDOF 5
