REMARK  21 active torsions:
REMARK  status: ('A' for Active; 'I' for Inactive)
REMARK    1  A    between atoms: C2_2  and  C3_3 
REMARK    2  A    between atoms: C3_3  and  C4_4 
REMARK    3  A    between atoms: C4_4  and  C5_5 
REMARK    4  A    between atoms: C5_5  and  C6_6 
REMARK    5  A    between atoms: C6_6  and  C7_7 
REMARK    6  A    between atoms: C7_7  and  C8_8 
REMARK    7  A    between atoms: C8_8  and  C9_9 
REMARK    8  A    between atoms: C9_9  and  C10_10 
REMARK    9  A    between atoms: C10_10  and  C11_11 
REMARK   10  A    between atoms: C11_11  and  C12_12 
REMARK   11  A    between atoms: C12_12  and  C13_13 
REMARK   12  A    between atoms: C13_13  and  C14_14 
REMARK   13  A    between atoms: C14_14  and  O1_15 
REMARK   14  A    between atoms: O1_15  and  C15_16 
REMARK   15  A    between atoms: C15_16  and  C16_18 
REMARK   16  A    between atoms: C16_18  and  C17_19 
REMARK   17  A    between atoms: C16_18  and  N1_26 
REMARK   18  A    between atoms: C17_19  and  C18_20 
REMARK       I    between atoms: N1_26  and  C24_27 
REMARK   19  A    between atoms: C24_27  and  C25_29 
REMARK   20  A    between atoms: C27_31  and  N4_42 
REMARK   21  A    between atoms: C28_33  and  C29_35 
ROOT
HETATM    1  C16 UNL     1       0.474   0.726   0.487  1.00  0.00     0.197 C 
ENDROOT
BRANCH   1   2
HETATM    2  C15 UNL     1       0.698  -0.388   1.442  1.00  0.00     0.295 C 
HETATM    3  O2  UNL     1      -0.229  -1.219   1.609  1.00  0.00    -0.262 OA
BRANCH   2   4
HETATM    4  O1  UNL     1       1.883  -0.538   2.146  1.00  0.00    -0.300 OA
BRANCH   4   5
HETATM    5  C14 UNL     1       2.077  -1.622   3.063  1.00  0.00     0.152 C 
BRANCH   5   6
HETATM    6  C13 UNL     1       3.483  -1.470   3.648  1.00  0.00     0.033 C 
BRANCH   6   7
HETATM    7  C12 UNL     1       4.513  -1.525   2.551  1.00  0.00     0.003 C 
BRANCH   7   8
HETATM    8  C11 UNL     1       4.304  -0.415   1.535  1.00  0.00     0.000 C 
BRANCH   8   9
HETATM    9  C10 UNL     1       5.339  -0.477   0.440  1.00  0.00     0.000 C 
BRANCH   9  10
HETATM   10  C9  UNL     1       6.747  -0.336   0.951  1.00  0.00     0.000 C 
BRANCH  10  11
HETATM   11  C8  UNL     1       6.985   0.957   1.658  1.00  0.00     0.000 C 
BRANCH  11  12
HETATM   12  C7  UNL     1       6.751   2.165   0.795  1.00  0.00     0.000 C 
BRANCH  12  13
HETATM   13  C6  UNL     1       7.667   2.197  -0.387  1.00  0.00     0.000 C 
BRANCH  13  14
HETATM   14  C5  UNL     1       7.516   0.988  -1.241  1.00  0.00     0.000 C 
BRANCH  14  15
HETATM   15  C4  UNL     1       8.389   1.042  -2.446  1.00  0.00     0.000 C 
BRANCH  15  16
HETATM   16  C3  UNL     1       9.839   1.154  -2.257  1.00  0.00     0.000 C 
BRANCH  16  17
HETATM   17  C2  UNL     1      10.454   0.021  -1.502  1.00  0.00     0.000 C 
HETATM   18  C1  UNL     1       9.904  -0.115  -0.112  1.00  0.00     0.000 C 
ENDBRANCH  16  17
ENDBRANCH  15  16
ENDBRANCH  14  15
ENDBRANCH  13  14
ENDBRANCH  12  13
ENDBRANCH  11  12
ENDBRANCH  10  11
ENDBRANCH   9  10
ENDBRANCH   8   9
ENDBRANCH   7   8
ENDBRANCH   6   7
ENDBRANCH   5   6
ENDBRANCH   4   5
ENDBRANCH   2   4
ENDBRANCH   1   2
BRANCH   1  19
HETATM   19  C17 UNL     1       1.488   0.683  -0.643  1.00  0.00     0.061 C 
BRANCH  19  20
HETATM   20  C18 UNL     1       1.398  -0.591  -1.404  1.00  0.00    -0.020 A 
HETATM   21  C19 UNL     1       0.601  -0.784  -2.489  1.00  0.00    -0.004 A 
HETATM   22  C20 UNL     1       0.551  -1.999  -3.170  1.00  0.00    -0.000 A 
HETATM   23  C21 UNL     1       1.350  -3.024  -2.703  1.00  0.00    -0.000 A 
HETATM   24  C22 UNL     1       2.154  -2.848  -1.619  1.00  0.00    -0.000 A 
HETATM   25  C23 UNL     1       2.186  -1.653  -0.970  1.00  0.00    -0.004 A 
ENDBRANCH  19  20
ENDBRANCH   1  19
BRANCH   1  26
HETATM   26  N1  UNL     1      -0.846   0.635  -0.102  1.00  0.00    -0.224 NA
HETATM   27  C24 UNL     1      -2.047   0.655   0.647  1.00  0.00     0.293 C 
HETATM   28  O3  UNL     1      -1.969   0.757   1.897  1.00  0.00    -0.264 OA
BRANCH  27  29
HETATM   29  C25 UNL     1      -3.367   0.558  -0.011  1.00  0.00     0.143 A 
HETATM   30  C26 UNL     1      -3.445   0.447  -1.382  1.00  0.00     0.061 A 
HETATM   31  C27 UNL     1      -4.695   0.357  -1.990  1.00  0.00     0.143 A 
HETATM   32  N2  UNL     1      -5.776   0.382  -1.203  1.00  0.00    -0.210 NA
HETATM   33  C28 UNL     1      -5.721   0.490   0.136  1.00  0.00     0.164 A 
HETATM   34  N3  UNL     1      -4.501   0.575   0.688  1.00  0.00    -0.222 NA
BRANCH  31  35
HETATM   35  N4  UNL     1      -4.802   0.240  -3.416  1.00  0.00    -0.330 N 
HETATM   36  C35 UNL     1      -3.637   0.213  -4.253  1.00  0.00     0.127 C 
HETATM   37  C36 UNL     1      -6.137   0.152  -3.977  1.00  0.00     0.127 C 
ENDBRANCH  31  35
BRANCH  33  38
HETATM   38  C29 UNL     1      -6.945   0.511   0.932  1.00  0.00     0.036 A 
HETATM   39  C30 UNL     1      -8.188   0.422   0.345  1.00  0.00     0.004 A 
HETATM   40  C31 UNL     1      -9.359   0.439   1.079  1.00  0.00     0.011 A 
HETATM   41  C32 UNL     1      -9.318   0.549   2.454  1.00  0.00     0.058 A 
HETATM   42 CL1  UNL     1     -10.790   0.575   3.419  1.00  0.00    -0.082 Cl
HETATM   43  C33 UNL     1      -8.078   0.639   3.051  1.00  0.00     0.011 A 
HETATM   44  C34 UNL     1      -6.900   0.621   2.305  1.00  0.00     0.004 A 
ENDBRANCH  33  38
ENDBRANCH  27  29
ENDBRANCH   1  26
TORSDOF 21
