REMARK  4 active torsions:
REMARK  status: ('A' for Active; 'I' for Inactive)
REMARK    1  A    between atoms: C4_4  and  S1_5 
REMARK    2  A    between atoms: S1_5  and  C5_6 
REMARK    3  A    between atoms: N2_14  and  C12_15 
REMARK    4  A    between atoms: C12_15  and  C13_16 
ROOT
HETATM    1  C1  UNL     1      -0.170   4.530  -1.269  1.00  0.00     0.040 C 
HETATM    2  C2  UNL     1      -0.215   3.310  -0.494  1.00  0.00     0.027 A 
HETATM    3  C3  UNL     1       0.802   2.673  -0.044  1.00  0.00     0.031 A 
HETATM    4  C4  UNL     1       0.969   1.503   0.728  1.00  0.00     0.131 A 
HETATM    5  N1  UNL     1      -0.039   0.838   1.149  1.00  0.00    -0.156 NA
HETATM    6  N2  UNL     1      -1.383   1.197   0.909  1.00  0.00    -0.216 N 
HETATM    7  S2  UNL     1      -1.817   2.535  -0.105  1.00  0.00     0.005 SA
ENDROOT
BRANCH   6   8
HETATM    8  C12 UNL     1      -2.351   0.309   1.519  1.00  0.00     0.169 C 
BRANCH   8   9
HETATM    9  C13 UNL     1      -2.992  -0.539   0.497  1.00  0.00     0.089 A 
HETATM   10  C14 UNL     1      -2.205  -1.516  -0.059  1.00  0.00     0.154 A 
HETATM   11  O1  UNL     1      -0.849  -1.523   0.135  1.00  0.00    -0.189 OA
HETATM   12  C15 UNL     1      -2.811  -2.514  -0.853  1.00  0.00     0.149 A 
HETATM   13  N3  UNL     1      -4.149  -2.454  -1.032  1.00  0.00    -0.141 NA
HETATM   14  N4  UNL     1      -4.854  -1.474  -0.466  1.00  0.00    -0.106 NA
HETATM   15  C16 UNL     1      -4.380  -0.501   0.296  1.00  0.00     0.297 A 
HETATM   16  O2  UNL     1      -5.051   0.412   0.833  1.00  0.00    -0.264 OA
ENDBRANCH   8   9
ENDBRANCH   6   8
BRANCH   4  17
HETATM   17  S1  UNL     1       2.615   1.001   1.171  1.00  0.00    -0.067 SA
BRANCH  17  18
HETATM   18  C5  UNL     1       3.458  -0.106   0.120  1.00  0.00     0.027 A 
HETATM   19  C6  UNL     1       3.953   0.270  -1.129  1.00  0.00     0.006 A 
HETATM   20  C7  UNL     1       4.692  -0.554  -1.896  1.00  0.00     0.001 A 
HETATM   21  C8  UNL     1       5.008  -1.847  -1.492  1.00  0.00    -0.000 A 
HETATM   22  C9  UNL     1       4.543  -2.251  -0.282  1.00  0.00    -0.004 A 
HETATM   23  C10 UNL     1       3.783  -1.400   0.512  1.00  0.00    -0.016 A 
HETATM   24  C11 UNL     1       3.444  -1.899   1.851  1.00  0.00     0.032 C 
ENDBRANCH  17  18
ENDBRANCH   4  17
TORSDOF 4
