REMARK  6 active torsions:
REMARK  status: ('A' for Active; 'I' for Inactive)
REMARK    1  A    between atoms: C2_2  and  C4_4 
REMARK    2  A    between atoms: C4_4  and  C5_5 
REMARK    3  A    between atoms: C5_5  and  N1_6 
REMARK    4  A    between atoms: C11_12  and  N2_14 
REMARK    5  A    between atoms: N2_14  and  C13_15 
REMARK    6  A    between atoms: C13_15  and  C14_16 
ROOT
HETATM    1  N1  UNL     1      -0.559  -0.580   0.236  1.00  0.00     0.137 N 
HETATM    2  C6  UNL     1      -0.938  -1.282   1.410  1.00  0.00     0.250 C 
HETATM    3  C7  UNL     1      -0.077  -2.513   1.542  1.00  0.00     0.035 C 
HETATM    4  C8  UNL     1      -0.465  -3.457   0.426  1.00  0.00     0.004 C 
HETATM    5  C9  UNL     1      -0.339  -2.761  -0.912  1.00  0.00     0.035 C 
HETATM    6  C10 UNL     1       0.228  -1.388  -0.632  1.00  0.00     0.253 C 
HETATM    7  C11 UNL     1       1.597  -1.568  -0.015  1.00  0.00     0.288 C 
HETATM    8  C12 UNL     1       1.378  -2.142   1.362  1.00  0.00     0.040 C 
ENDROOT
BRANCH   1   9
HETATM    9  C5  UNL     1      -1.644   0.093  -0.433  1.00  0.00     0.250 C 
BRANCH   9  10
HETATM   10  C4  UNL     1      -2.187   1.253   0.365  1.00  0.00     0.035 C 
BRANCH  10  11
HETATM   11  C2  UNL     1      -3.316   1.947  -0.324  1.00  0.00     0.002 C 
HETATM   12  C1  UNL     1      -2.990   2.527  -1.656  1.00  0.00     0.000 C 
HETATM   13  C3  UNL     1      -4.079   2.875   0.585  1.00  0.00     0.000 C 
ENDBRANCH  10  11
ENDBRANCH   9  10
ENDBRANCH   1   9
BRANCH   7  14
HETATM   14  N2  UNL     1       2.407  -0.396  -0.029  1.00  0.00     0.351 N 
BRANCH  14  15
HETATM   15  C13 UNL     1       1.855   0.704   0.743  1.00  0.00     0.386 C 
BRANCH  15  16
HETATM   16  C14 UNL     1       2.789   1.856   0.646  1.00  0.00     0.223 C 
HETATM   17  O1  UNL     1       2.491   3.046   1.306  1.00  0.00    -0.646 OA
HETATM   18  O2  UNL     1       3.849   1.786  -0.018  1.00  0.00    -0.646 OA
ENDBRANCH  15  16
ENDBRANCH  14  15
ENDBRANCH   7  14
TORSDOF 6
