REMARK  2 active torsions:
REMARK  status: ('A' for Active; 'I' for Inactive)
REMARK    1  A    between atoms: C5_5  and  N2_8 
REMARK       I    between atoms: N3_11  and  C11_14 
REMARK    2  A    between atoms: C11_14  and  C12_16 
ROOT
HETATM    1  N2  UNL     1      -2.784   0.610   0.269  1.00  0.00    -0.330 N 
HETATM    2  C7  UNL     1      -2.557   1.537   1.334  1.00  0.00     0.127 C 
HETATM    3  C8  UNL     1      -1.386   2.432   1.154  1.00  0.00     0.129 C 
HETATM    4  N3  UNL     1      -0.334   1.691   0.490  1.00  0.00    -0.313 N 
HETATM    5  C9  UNL     1      -0.629   1.127  -0.801  1.00  0.00     0.129 C 
HETATM    6  C10 UNL     1      -1.775   0.186  -0.676  1.00  0.00     0.127 C 
HETATM    7  C11 UNL     1       0.933   1.525   1.080  1.00  0.00     0.259 C 
HETATM    8  O1  UNL     1       1.143   2.043   2.222  1.00  0.00    -0.267 OA
ENDROOT
BRANCH   7   9
HETATM    9  C12 UNL     1       1.976   0.779   0.400  1.00  0.00     0.075 A 
HETATM   10  C13 UNL     1       1.727   0.229  -0.831  1.00  0.00     0.104 A 
HETATM   11  N4  UNL     1       2.677  -0.451  -1.451  1.00  0.00    -0.244 NA
HETATM   12  C14 UNL     1       3.878  -0.597  -0.870  1.00  0.00     0.082 A 
HETATM   13  C15 UNL     1       4.829  -1.326  -1.583  1.00  0.00     0.030 A 
HETATM   14  C19 UNL     1       4.184  -0.061   0.375  1.00  0.00     0.018 A 
HETATM   15  C16 UNL     1       6.084  -1.532  -1.078  1.00  0.00     0.059 A 
HETATM   16 CL1  UNL     1       7.227  -2.458  -2.031  1.00  0.00    -0.082 Cl
HETATM   17  C17 UNL     1       6.396  -1.003   0.158  1.00  0.00     0.011 A 
HETATM   18  C18 UNL     1       5.444  -0.275   0.868  1.00  0.00     0.002 A 
HETATM   19  C20 UNL     1       3.198   0.639   1.007  1.00  0.00     0.008 A 
ENDBRANCH   7   9
BRANCH   1  20
HETATM   20  C5  UNL     1      -4.085   0.060   0.116  1.00  0.00     0.140 A 
HETATM   21  C4  UNL     1      -4.388  -0.844  -0.889  1.00  0.00     0.036 A 
HETATM   22  C3  UNL     1      -5.685  -1.326  -0.958  1.00  0.00     0.000 A 
HETATM   23  C2  UNL     1      -6.659  -0.946  -0.083  1.00  0.00    -0.003 A 
HETATM   24  C1  UNL     1      -8.065  -1.421  -0.098  1.00  0.00     0.033 C 
HETATM   25  C6  UNL     1      -6.301  -0.044   0.897  1.00  0.00     0.096 A 
HETATM   26  N1  UNL     1      -5.048   0.431   0.976  1.00  0.00    -0.228 NA
ENDBRANCH   1  20
TORSDOF 2
