REMARK  3 active torsions:
REMARK  status: ('A' for Active; 'I' for Inactive)
REMARK    1  A    between atoms: C2_2  and  C4_4 
REMARK    2  A    between atoms: C4_4  and  C5_5 
REMARK    3  A    between atoms: C5_5  and  C6_7 
ROOT
HETATM    1  C6  UNL     1       0.773  -0.187  -0.340  1.00  0.00     0.014 A 
HETATM    2  C7  UNL     1       1.552  -1.323  -0.445  1.00  0.00    -0.002 A 
HETATM    3  C8  UNL     1       2.923  -1.306  -0.307  1.00  0.00    -0.000 A 
HETATM    4  C9  UNL     1       3.576  -0.119  -0.053  1.00  0.00    -0.000 A 
HETATM    5  C10 UNL     1       2.818   1.030   0.056  1.00  0.00    -0.000 A 
HETATM    6  C11 UNL     1       1.436   0.997  -0.086  1.00  0.00    -0.002 A 
ENDROOT
BRANCH   1   7
HETATM    7  C5  UNL     1      -0.711  -0.246  -0.496  1.00  0.00     0.324 C 
HETATM    8  N1  UNL     1      -1.161   0.856  -1.362  1.00  0.00     0.621 N 
BRANCH   7   9
HETATM    9  C4  UNL     1      -1.409  -0.153   0.845  1.00  0.00     0.044 C 
BRANCH   9  10
HETATM   10  C2  UNL     1      -2.896  -0.256   0.573  1.00  0.00     0.002 C 
HETATM   11  C1  UNL     1      -3.654  -0.170   1.879  1.00  0.00     0.000 C 
HETATM   12  C3  UNL     1      -3.249   0.877  -0.367  1.00  0.00     0.000 C 
ENDBRANCH   9  10
ENDBRANCH   7   9
ENDBRANCH   1   7
TORSDOF 3
