REMARK  6 active torsions:
REMARK  status: ('A' for Active; 'I' for Inactive)
REMARK    1  A    between atoms: C2_2  and  O1_3 
REMARK    2  A    between atoms: O1_3  and  C3_4 
REMARK    3  A    between atoms: C3_4  and  C4_6 
REMARK    4  A    between atoms: C5_7  and  C17_26 
REMARK    5  A    between atoms: C8_12  and  S1_22 
REMARK    6  A    between atoms: C17_26  and  C18_27 
ROOT
HETATM    1  C4  UNL     1       0.316   0.729   0.459  1.00  0.00     0.140 C 
HETATM    2  C5  UNL     1       1.197  -0.288   0.449  1.00  0.00     0.065 C 
HETATM    3  N1  UNL     1       0.855  -1.601   0.043  1.00  0.00    -0.296 N 
HETATM    4  C6  UNL     1       1.800  -2.702   0.032  1.00  0.00     0.133 C 
HETATM    5  C7  UNL     1      -0.494  -1.849  -0.376  1.00  0.00     0.275 C 
HETATM    6  O3  UNL     1      -0.774  -2.800  -1.162  1.00  0.00    -0.269 OA
HETATM    7  C8  UNL     1      -1.522  -0.931   0.165  1.00  0.00     0.256 A 
HETATM    8  C9  UNL     1      -2.792  -0.922  -0.592  1.00  0.00     0.024 A 
HETATM    9  C10 UNL     1      -3.675  -1.923  -0.863  1.00  0.00    -0.001 A 
HETATM   10  C11 UNL     1      -4.842  -1.691  -1.553  1.00  0.00    -0.000 A 
HETATM   11  C12 UNL     1      -5.114  -0.422  -1.974  1.00  0.00     0.000 A 
HETATM   12  C13 UNL     1      -4.257   0.644  -1.733  1.00  0.00     0.004 A 
HETATM   13  C14 UNL     1      -3.098   0.362  -1.038  1.00  0.00     0.055 A 
HETATM   14  C15 UNL     1      -1.963   1.208  -0.656  1.00  0.00     0.262 A 
HETATM   15  O4  UNL     1      -1.889   2.449  -0.894  1.00  0.00    -0.267 OA
HETATM   16  N2  UNL     1      -0.990   0.411   0.008  1.00  0.00    -0.270 N 
ENDROOT
BRANCH   2  17
HETATM   17  C17 UNL     1       2.575   0.015   0.895  1.00  0.00     0.072 C 
BRANCH  17  18
HETATM   18  C18 UNL     1       3.612  -0.196  -0.119  1.00  0.00    -0.016 A 
HETATM   19  C19 UNL     1       4.311  -1.365  -0.250  1.00  0.00    -0.004 A 
HETATM   20  C20 UNL     1       5.282  -1.537  -1.214  1.00  0.00    -0.000 A 
HETATM   21  C21 UNL     1       5.563  -0.503  -2.077  1.00  0.00    -0.000 A 
HETATM   22  C22 UNL     1       4.885   0.679  -1.977  1.00  0.00    -0.000 A 
HETATM   23  C23 UNL     1       3.917   0.823  -1.001  1.00  0.00    -0.004 A 
ENDBRANCH  17  18
ENDBRANCH   2  17
BRANCH   1  24
HETATM   24  C3  UNL     1       0.700   2.069   0.887  1.00  0.00     0.313 C 
HETATM   25  O2  UNL     1       1.915   2.256   1.253  1.00  0.00    -0.257 OA
BRANCH  24  26
HETATM   26  O1  UNL     1      -0.163   3.125   0.916  1.00  0.00    -0.297 OA
BRANCH  26  27
HETATM   27  C2  UNL     1       0.310   4.386   1.348  1.00  0.00     0.152 C 
HETATM   28  C1  UNL     1       1.433   4.911   0.498  1.00  0.00     0.035 C 
ENDBRANCH  26  27
ENDBRANCH  24  26
ENDBRANCH   1  24
BRANCH   7  29
HETATM   29  S1  UNL     1      -1.784  -1.271   1.880  1.00  0.00     0.200 S 
HETATM   30  C16 UNL     1      -0.268  -1.041   2.770  1.00  0.00     0.142 C 
HETATM   31  O5  UNL     1      -2.805  -0.354   2.478  1.00  0.00    -0.223 OA
HETATM   32  O6  UNL     1      -2.240  -2.670   2.113  1.00  0.00    -0.223 OA
ENDBRANCH   7  29
TORSDOF 6
