REMARK  4 active torsions:
REMARK  status: ('A' for Active; 'I' for Inactive)
REMARK    1  A    between atoms: C1_2  and  C2_3 
REMARK       I    between atoms: C1_2  and  N4_21 
REMARK    2  A    between atoms: C2_3  and  N1_4 
REMARK       I    between atoms: N1_4  and  C3_5 
REMARK       I    between atoms: C3_5  and  N2_7 
REMARK    3  A    between atoms: N4_21  and  C15_22 
REMARK    4  A    between atoms: C15_22  and  C16_23 
ROOT
HETATM    1  C2  UNL     1       0.494   1.924  -2.660  1.00  0.00     0.219 C 
ENDROOT
BRANCH   1   2
HETATM    2  C1  UNL     1       1.376   1.916  -1.444  1.00  0.00     0.277 C 
HETATM    3  O1  UNL     1       2.449   2.574  -1.511  1.00  0.00    -0.268 OA
HETATM    4  N4  UNL     1       1.073   1.225  -0.262  1.00  0.00    -0.231 NA
BRANCH   4   5
HETATM    5  C15 UNL     1       1.877   1.181   0.928  1.00  0.00     0.155 C 
BRANCH   5   6
HETATM    6  C16 UNL     1       3.025   0.276   0.728  1.00  0.00     0.004 A 
HETATM    7  C17 UNL     1       2.871  -1.091   0.866  1.00  0.00    -0.000 A 
HETATM    8  C18 UNL     1       3.919  -1.972   0.691  1.00  0.00     0.025 A 
HETATM    9  C19 UNL     1       5.178  -1.502   0.365  1.00  0.00     0.110 A 
HETATM   10  O4  UNL     1       6.259  -2.342   0.179  1.00  0.00    -0.319 OA
HETATM   11  C23 UNL     1       5.362  -0.150   0.221  1.00  0.00     0.084 A 
HETATM   12  C20 UNL     1       7.433  -1.988  -0.525  1.00  0.00     0.236 C 
HETATM   13  C21 UNL     1       7.761  -0.542  -0.307  1.00  0.00     0.268 C 
HETATM   14  O5  UNL     1       8.951  -0.203  -0.306  1.00  0.00    -0.269 OA
HETATM   15  N5  UNL     1       6.650   0.338  -0.114  1.00  0.00    -0.293 N 
HETATM   16  C22 UNL     1       6.886   1.756  -0.274  1.00  0.00     0.134 C 
HETATM   17  C24 UNL     1       4.288   0.716   0.403  1.00  0.00     0.017 A 
ENDBRANCH   5   6
ENDBRANCH   4   5
ENDBRANCH   1   2
BRANCH   1  18
HETATM   18  N1  UNL     1      -0.664   1.102  -2.298  1.00  0.00    -0.208 NA
HETATM   19  C3  UNL     1      -1.477   1.490  -1.214  1.00  0.00     0.349 C 
HETATM   20  O2  UNL     1      -1.216   2.525  -0.575  1.00  0.00    -0.245 OA
HETATM   21  N2  UNL     1      -2.590   0.693  -0.858  1.00  0.00    -0.244 N 
HETATM   22  C4  UNL     1      -3.005  -0.530  -1.514  1.00  0.00     0.141 A 
HETATM   23  C14 UNL     1      -3.525   0.899   0.200  1.00  0.00     0.266 A 
HETATM   24  C5  UNL     1      -4.178  -1.029  -0.770  1.00  0.00     0.007 A 
HETATM   25  C6  UNL     1      -4.933  -2.165  -0.968  1.00  0.00    -0.002 A 
HETATM   26  C13 UNL     1      -4.509  -0.168   0.256  1.00  0.00     0.071 A 
HETATM   27  C7  UNL     1      -6.020  -2.433  -0.134  1.00  0.00     0.001 A 
HETATM   28  C8  UNL     1      -6.372  -1.592   0.895  1.00  0.00     0.017 A 
HETATM   29  C9  UNL     1      -7.506  -1.872   1.772  1.00  0.00    -0.001 A 
HETATM   30  C12 UNL     1      -5.589  -0.465   1.058  1.00  0.00     0.081 A 
HETATM   31  C10 UNL     1      -7.810  -1.045   2.750  1.00  0.00     0.000 A 
HETATM   32  C11 UNL     1      -7.039   0.177   3.003  1.00  0.00     0.152 A 
HETATM   33  N3  UNL     1      -5.942   0.407   2.113  1.00  0.00    -0.266 NA
HETATM   34  O3  UNL     1      -3.477   1.891   0.971  1.00  0.00    -0.267 OA
ENDBRANCH   1  18
TORSDOF 4
