REMARK  5 active torsions:
REMARK  status: ('A' for Active; 'I' for Inactive)
REMARK    1  A    between atoms: O1_2  and  C2_3 
REMARK    2  A    between atoms: C4_5  and  C9_12 
REMARK    3  A    between atoms: C6_7  and  O2_8 
REMARK    4  A    between atoms: C10_14  and  S1_23 
REMARK    5  A    between atoms: S1_23  and  C15_24 
REMARK       I    between atoms: N2_26  and  C16_27 
ROOT
HETATM    1  C9  UNL     1      -0.438  -0.521  -0.186  1.00  0.00     0.178 C 
HETATM    2  O4  UNL     1       0.214   0.613   0.184  1.00  0.00    -0.318 OA
HETATM    3  C10 UNL     1       0.620   0.703   1.475  1.00  0.00     0.154 C 
HETATM    4  C11 UNL     1      -0.488   0.922   2.428  1.00  0.00     0.183 C 
HETATM    5  O5  UNL     1      -0.083   1.487   3.612  1.00  0.00    -0.186 OA
HETATM    6  C12 UNL     1      -1.553  -0.076   2.499  1.00  0.00     0.169 C 
HETATM    7  O6  UNL     1      -2.762   0.291   2.985  1.00  0.00    -0.190 OA
HETATM    8  C13 UNL     1      -1.354  -1.417   1.976  1.00  0.00     0.235 C 
HETATM    9  O7  UNL     1      -2.596  -2.051   1.789  1.00  0.00    -0.213 OA
HETATM   10  C14 UNL     1      -0.439  -1.616   0.834  1.00  0.00     0.220 C 
HETATM   11  O8  UNL     1      -0.803  -2.797   0.182  1.00  0.00    -0.217 OA
ENDROOT
BRANCH   1  12
HETATM   12  C4  UNL     1      -1.764  -0.287  -0.794  1.00  0.00     0.012 A 
HETATM   13  C3  UNL     1      -2.681   0.583  -0.245  1.00  0.00     0.025 A 
HETATM   14  C2  UNL     1      -3.914   0.799  -0.822  1.00  0.00     0.121 A 
HETATM   15  C8  UNL     1      -4.300   0.157  -1.977  1.00  0.00     0.175 A 
HETATM   16  C6  UNL     1      -3.372  -0.727  -2.537  1.00  0.00     0.121 A 
HETATM   17  O3  UNL     1      -5.532   0.349  -2.584  1.00  0.00    -0.186 OA
HETATM   18  C5  UNL     1      -2.141  -0.934  -1.951  1.00  0.00     0.025 A 
BRANCH  14  19
HETATM   19  O1  UNL     1      -4.835   1.682  -0.259  1.00  0.00    -0.326 OA
HETATM   20  C1  UNL     1      -4.487   2.353   0.912  1.00  0.00     0.181 C 
ENDBRANCH  14  19
BRANCH  16  21
HETATM   21  O2  UNL     1      -3.772  -1.370  -3.704  1.00  0.00    -0.326 OA
HETATM   22  C7  UNL     1      -2.835  -2.279  -4.292  1.00  0.00     0.181 C 
ENDBRANCH  16  21
ENDBRANCH   1  12
BRANCH   3  23
HETATM   23  S1  UNL     1       1.918  -0.393   2.000  1.00  0.00    -0.021 SA
BRANCH  23  24
HETATM   24  C15 UNL     1       3.445   0.015   1.154  1.00  0.00     0.218 A 
HETATM   25  N1  UNL     1       3.922  -0.447  -0.012  1.00  0.00    -0.133 NA
HETATM   26  N2  UNL     1       5.075   0.095  -0.294  1.00  0.00    -0.155 N 
HETATM   27  C16 UNL     1       5.893  -0.146  -1.448  1.00  0.00     0.260 C 
HETATM   28  C18 UNL     1       5.390   0.944   0.701  1.00  0.00     0.306 A 
HETATM   29  C17 UNL     1       7.187   0.562  -1.616  1.00  0.00     0.100 C 
HETATM   30  O9  UNL     1       5.553  -0.943  -2.337  1.00  0.00    -0.270 OA
HETATM   31  O10 UNL     1       6.539   1.698   0.745  1.00  0.00    -0.147 OA
HETATM   32  N3  UNL     1       4.394   0.893   1.582  1.00  0.00    -0.176 NA
ENDBRANCH  23  24
ENDBRANCH   3  23
TORSDOF 5
