REMARK  8 active torsions:
REMARK  status: ('A' for Active; 'I' for Inactive)
REMARK    1  A    between atoms: C2_2  and  C3_3 
REMARK       I    between atoms: C3_3  and  N1_5 
REMARK    2  A    between atoms: N1_5  and  C4_6 
REMARK    3  A    between atoms: C4_6  and  C5_7 
REMARK    4  A    between atoms: N2_11  and  C10_13 
REMARK    5  A    between atoms: C11_15  and  N4_16 
REMARK    6  A    between atoms: N4_16  and  C12_17 
REMARK    7  A    between atoms: C12_17  and  C13_18 
REMARK    8  A    between atoms: C13_18  and  C14_19 
ROOT
HETATM    1  C10 UNL     1      -0.545  -0.914   0.698  1.00  0.00     0.289 A 
HETATM    2  N3  UNL     1       0.424  -0.315  -0.058  1.00  0.00    -0.015 NA
HETATM    3  C11 UNL     1       1.521  -1.078  -0.061  1.00  0.00     0.771 A 
HETATM    4  N6  UNL     1       1.228  -2.143   0.692  1.00  0.00     0.073 NA
HETATM    5  O2  UNL     1       0.013  -2.023   1.124  1.00  0.00    -0.159 OA
ENDROOT
BRANCH   1   6
HETATM    6  N2  UNL     1      -1.847  -0.419   0.944  1.00  0.00    -0.312 N 
HETATM    7  C8  UNL     1      -2.243   0.830   0.367  1.00  0.00     0.105 C 
HETATM    8  C7  UNL     1      -2.739   1.698   1.534  1.00  0.00     0.024 C 
HETATM    9  C6  UNL     1      -4.001   1.049   2.074  1.00  0.00     0.006 C 
HETATM   10  C5  UNL     1      -4.072  -0.402   1.812  1.00  0.00     0.047 C 
HETATM   11  C9  UNL     1      -2.779  -1.137   1.755  1.00  0.00     0.107 C 
BRANCH  10  12
HETATM   12  C4  UNL     1      -5.170  -0.916   0.977  1.00  0.00     0.131 C 
BRANCH  12  13
HETATM   13  N1  UNL     1      -5.285  -0.451  -0.355  1.00  0.00    -0.238 NA
HETATM   14  C3  UNL     1      -5.499   0.873  -0.793  1.00  0.00     0.251 C 
HETATM   15  O1  UNL     1      -5.611   1.785   0.029  1.00  0.00    -0.271 OA
BRANCH  14  16
HETATM   16  C2  UNL     1      -5.575   1.082  -2.270  1.00  0.00     0.090 C 
HETATM   17  C1  UNL     1      -5.803   2.516  -2.628  1.00  0.00     0.010 C 
ENDBRANCH  14  16
ENDBRANCH  12  13
ENDBRANCH  10  12
ENDBRANCH   1   6
BRANCH   3  18
HETATM   18  N4  UNL     1       2.762  -0.867  -0.700  1.00  0.00    -0.084 NA
BRANCH  18  19
HETATM   19  C12 UNL     1       3.074   0.279  -1.509  1.00  0.00     0.151 C 
BRANCH  19  20
HETATM   20  C13 UNL     1       4.480   0.171  -2.027  1.00  0.00     0.073 C 
BRANCH  20  21
HETATM   21  C14 UNL     1       5.415   0.107  -0.860  1.00  0.00     0.061 A 
HETATM   22  C15 UNL     1       5.791  -1.072  -0.277  1.00  0.00     0.015 A 
HETATM   23  C16 UNL     1       6.650  -1.140   0.794  1.00  0.00     0.003 A 
HETATM   24  C17 UNL     1       7.146   0.042   1.294  1.00  0.00     0.021 A 
HETATM   25  C18 UNL     1       6.750   1.212   0.687  1.00  0.00     0.099 A 
HETATM   26  N5  UNL     1       5.913   1.234  -0.354  1.00  0.00    -0.248 NA
ENDBRANCH  20  21
ENDBRANCH  19  20
ENDBRANCH  18  19
ENDBRANCH   3  18
TORSDOF 8
