REMARK  8 active torsions:
REMARK  status: ('A' for Active; 'I' for Inactive)
REMARK    1  A    between atoms: O1_2  and  C2_3 
REMARK    2  A    between atoms: C5_6  and  O2_7 
REMARK    3  A    between atoms: O2_7  and  C6_8 
REMARK    4  A    between atoms: C9_11  and  C12_14 
REMARK       I    between atoms: C12_14  and  N1_16 
REMARK    5  A    between atoms: N1_16  and  C13_17 
REMARK    6  A    between atoms: C13_17  and  C14_18 
REMARK    7  A    between atoms: C14_18  and  N2_19 
REMARK    8  A    between atoms: N3_22  and  C19_25 
ROOT
HETATM    1  C12 UNL     1       0.267  -0.934   0.519  1.00  0.00     0.275 C 
HETATM    2  O3  UNL     1      -0.634  -1.783   0.722  1.00  0.00    -0.266 OA
HETATM    3  N1  UNL     1      -0.069   0.438   0.345  1.00  0.00    -0.232 NA
ENDROOT
BRANCH   1   4
HETATM    4  C9  UNL     1       1.681  -1.322   0.454  1.00  0.00     0.058 A 
HETATM    5  C8  UNL     1       2.670  -0.385   0.255  1.00  0.00     0.007 A 
HETATM    6  C7  UNL     1       4.002  -0.765   0.197  1.00  0.00     0.025 A 
HETATM    7  C6  UNL     1       4.398  -2.078   0.332  1.00  0.00     0.100 A 
HETATM    8  C11 UNL     1       3.405  -3.016   0.531  1.00  0.00     0.025 A 
HETATM    9  C10 UNL     1       2.071  -2.637   0.590  1.00  0.00     0.007 A 
BRANCH   7  10
HETATM   10  O2  UNL     1       5.730  -2.473   0.276  1.00  0.00    -0.307 OA
BRANCH  10  11
HETATM   11  C5  UNL     1       6.694  -1.488   0.079  1.00  0.00     0.100 A 
HETATM   12  C4  UNL     1       7.093  -1.126  -1.203  1.00  0.00     0.027 A 
HETATM   13  C3  UNL     1       8.042  -0.158  -1.411  1.00  0.00     0.026 A 
HETATM   14  C2  UNL     1       8.610   0.469  -0.314  1.00  0.00     0.090 A 
HETATM   15  C26 UNL     1       8.241   0.139   0.974  1.00  0.00     0.002 A 
HETATM   16  C25 UNL     1       7.284  -0.840   1.144  1.00  0.00     0.022 A 
HETATM   17  C27 UNL     1       8.880   0.842   2.112  1.00  0.00     0.033 C 
BRANCH  14  18
HETATM   18  O1  UNL     1       9.577   1.458  -0.474  1.00  0.00    -0.328 OA
HETATM   19  C1  UNL     1      10.029   1.875  -1.749  1.00  0.00     0.181 C 
ENDBRANCH  14  18
ENDBRANCH  10  11
ENDBRANCH   7  10
ENDBRANCH   1   4
BRANCH   3  20
HETATM   20  C13 UNL     1      -1.451   0.900   0.397  1.00  0.00     0.164 C 
BRANCH  20  21
HETATM   21  C14 UNL     1      -2.293   0.232  -0.668  1.00  0.00     0.277 C 
BRANCH  21  22
HETATM   22  N2  UNL     1      -3.650   0.724  -0.575  1.00  0.00     0.143 N 
HETATM   23  C15 UNL     1      -4.190   0.210   0.688  1.00  0.00     0.274 C 
HETATM   24  C16 UNL     1      -5.584   0.752   0.926  1.00  0.00     0.137 C 
HETATM   25  N3  UNL     1      -6.356   0.448  -0.262  1.00  0.00    -0.344 N 
HETATM   26  C17 UNL     1      -5.737  -0.323  -1.319  1.00  0.00     0.137 C 
HETATM   27  C18 UNL     1      -4.381   0.209  -1.721  1.00  0.00     0.274 C 
BRANCH  25  28
HETATM   28  C19 UNL     1      -7.690   0.912  -0.359  1.00  0.00     0.057 A 
HETATM   29  C20 UNL     1      -8.470   0.627  -1.464  1.00  0.00     0.017 A 
HETATM   30  C21 UNL     1      -9.775   1.088  -1.550  1.00  0.00     0.002 A 
HETATM   31  C22 UNL     1     -10.318   1.833  -0.549  1.00  0.00     0.011 A 
HETATM   32  C23 UNL     1      -9.583   2.138   0.560  1.00  0.00     0.059 A 
HETATM   33 CL1  UNL     1     -10.211   3.091   1.888  1.00  0.00    -0.082 Cl
HETATM   34  C24 UNL     1      -8.281   1.668   0.628  1.00  0.00     0.028 A 
ENDBRANCH  25  28
ENDBRANCH  21  22
ENDBRANCH  20  21
ENDBRANCH   3  20
TORSDOF 8
