REMARK  3 active torsions:
REMARK  status: ('A' for Active; 'I' for Inactive)
REMARK    1  A    between atoms: C3_4  and  C6_9 
REMARK    2  A    between atoms: N2_6  and  C5_7 
REMARK    3  A    between atoms: C10_14  and  N4_18 
ROOT
HETATM    1  C6  UNL     1      -0.766   0.129   1.113  1.00  0.00     0.162 A 
HETATM    2  N3  UNL     1      -0.206   1.260   0.663  1.00  0.00    -0.224 NA
HETATM    3  C7  UNL     1       1.073   1.007   0.342  1.00  0.00     0.106 A 
HETATM    4  C8  UNL     1       2.075   1.815  -0.161  1.00  0.00     0.023 A 
HETATM    5  C9  UNL     1       3.300   1.250  -0.388  1.00  0.00     0.025 A 
HETATM    6  C10 UNL     1       3.576  -0.077  -0.140  1.00  0.00     0.129 A 
HETATM    7  C11 UNL     1       2.537  -0.841   0.362  1.00  0.00     0.050 A 
HETATM    8  C12 UNL     1       1.291  -0.321   0.607  1.00  0.00     0.121 A 
HETATM    9  O2  UNL     1       0.151  -0.790   1.067  1.00  0.00    -0.291 OA
ENDROOT
BRANCH   1  10
HETATM   10  C3  UNL     1      -2.189   0.019   1.568  1.00  0.00     0.106 C 
HETATM   11  C2  UNL     1      -2.975   1.222   1.094  1.00  0.00     0.104 C 
HETATM   12  N1  UNL     1      -4.228   0.687   0.568  1.00  0.00    -0.193 NA
HETATM   13  C1  UNL     1      -4.784   1.644  -0.363  1.00  0.00     0.114 C 
HETATM   14  N2  UNL     1      -3.801  -0.485  -0.047  1.00  0.00    -0.253 N 
HETATM   15  C4  UNL     1      -2.884  -1.131   0.862  1.00  0.00     0.133 C 
BRANCH  14  16
HETATM   16  C5  UNL     1      -4.192  -0.956  -1.326  1.00  0.00     0.328 C 
HETATM   17  O1  UNL     1      -3.777  -2.016  -1.830  1.00  0.00    -0.261 OA
ENDBRANCH  14  16
ENDBRANCH   1  10
BRANCH   6  18
HETATM   18  N4  UNL     1       4.865  -0.625  -0.391  1.00  0.00    -0.114 N 
HETATM   19  O3  UNL     1       5.194  -1.920  -0.167  1.00  0.00    -0.532 OA
HETATM   20  O4  UNL     1       5.743   0.131  -0.843  1.00  0.00    -0.532 OA
ENDBRANCH   6  18
TORSDOF 3
