REMARK  7 active torsions:
REMARK  status: ('A' for Active; 'I' for Inactive)
REMARK    1  A    between atoms: C2_2  and  C3_3 
REMARK    2  A    between atoms: C2_2  and  N1_14 
REMARK    3  A    between atoms: C3_3  and  C4_4 
REMARK       I    between atoms: N1_14  and  C14_15 
REMARK    4  A    between atoms: C14_15  and  C15_17 
REMARK    5  A    between atoms: C16_18  and  C17_19 
REMARK    6  A    between atoms: C17_19  and  C18_20 
REMARK    7  A    between atoms: C17_19  and  C24_27 
ROOT
HETATM    1  N1  UNL     1       1.226   1.202  -1.072  1.00  0.00    -0.236 NA
HETATM    2  C14 UNL     1      -0.092   0.749  -0.831  1.00  0.00     0.275 C 
HETATM    3  O1  UNL     1      -0.447   0.642   0.365  1.00  0.00    -0.266 OA
ENDROOT
BRANCH   2   4
HETATM    4  C15 UNL     1      -1.016   0.417  -1.904  1.00  0.00     0.058 C 
HETATM    5  C16 UNL     1      -2.224   0.003  -1.601  1.00  0.00    -0.013 C 
BRANCH   5   6
HETATM    6  C17 UNL     1      -2.727  -0.154  -0.227  1.00  0.00     0.067 C 
BRANCH   6   7
HETATM    7  C18 UNL     1      -3.736   0.844   0.145  1.00  0.00    -0.014 A 
HETATM    8  C19 UNL     1      -4.708   1.226  -0.745  1.00  0.00    -0.002 A 
HETATM    9  C20 UNL     1      -5.642   2.152  -0.395  1.00  0.00     0.027 A 
HETATM   10  C21 UNL     1      -5.622   2.715   0.854  1.00  0.00     0.131 A 
HETATM   11  O2  UNL     1      -6.549   3.672   1.282  1.00  0.00    -0.190 OA
HETATM   12  C22 UNL     1      -4.635   2.321   1.745  1.00  0.00     0.027 A 
HETATM   13  C23 UNL     1      -3.683   1.384   1.403  1.00  0.00    -0.002 A 
ENDBRANCH   6   7
BRANCH   6  14
HETATM   14  C24 UNL     1      -3.211  -1.512   0.091  1.00  0.00    -0.014 A 
HETATM   15  C25 UNL     1      -3.927  -2.304  -0.778  1.00  0.00    -0.004 A 
HETATM   16  C26 UNL     1      -4.355  -3.581  -0.412  1.00  0.00    -0.000 A 
HETATM   17  C27 UNL     1      -4.072  -4.087   0.833  1.00  0.00    -0.000 A 
HETATM   18  C28 UNL     1      -3.353  -3.301   1.715  1.00  0.00    -0.000 A 
HETATM   19  C29 UNL     1      -2.936  -2.037   1.337  1.00  0.00    -0.004 A 
ENDBRANCH   6  14
ENDBRANCH   5   6
ENDBRANCH   2   4
BRANCH   1  20
HETATM   20  C2  UNL     1       2.061   1.504   0.046  1.00  0.00     0.111 C 
HETATM   21  C1  UNL     1       3.061   2.552  -0.372  1.00  0.00     0.027 C 
BRANCH  20  22
HETATM   22  C3  UNL     1       2.601   0.348   0.782  1.00  0.00     0.051 C 
BRANCH  22  23
HETATM   23  C4  UNL     1       3.606  -0.469   0.103  1.00  0.00    -0.020 A 
HETATM   24  C5  UNL     1       3.245  -1.668  -0.451  1.00  0.00    -0.004 A 
HETATM   25  C6  UNL     1       4.150  -2.475  -1.110  1.00  0.00    -0.000 A 
HETATM   26  C7  UNL     1       5.450  -2.066  -1.214  1.00  0.00    -0.000 A 
HETATM   27  C8  UNL     1       5.852  -0.862  -0.666  1.00  0.00    -0.000 A 
HETATM   28  C9  UNL     1       7.164  -0.481  -0.784  1.00  0.00    -0.000 A 
HETATM   29  C13 UNL     1       4.908  -0.060  -0.001  1.00  0.00    -0.004 A 
HETATM   30  C10 UNL     1       7.580   0.711  -0.243  1.00  0.00    -0.000 A 
HETATM   31  C11 UNL     1       6.667   1.503   0.410  1.00  0.00    -0.000 A 
HETATM   32  C12 UNL     1       5.362   1.110   0.519  1.00  0.00    -0.000 A 
ENDBRANCH  22  23
ENDBRANCH  20  22
ENDBRANCH   1  20
TORSDOF 7
