REMARK  6 active torsions:
REMARK  status: ('A' for Active; 'I' for Inactive)
REMARK    1  A    between atoms: C2_2  and  C4_4 
REMARK    2  A    between atoms: C4_4  and  C5_5 
REMARK       I    between atoms: N2_7  and  C15_18 
REMARK    3  A    between atoms: C6_8  and  C8_10 
REMARK    4  A    between atoms: C11_13  and  O1_14 
REMARK       I    between atoms: C15_18  and  N3_20 
REMARK    5  A    between atoms: N3_20  and  C16_21 
REMARK    6  A    between atoms: C16_21  and  C17_22 
ROOT
HETATM    1  C5  UNL     1       1.116  -1.639   0.449  1.00  0.00     0.059 C 
HETATM    2  N1  UNL     1       1.289  -0.424   0.809  1.00  0.00    -0.174 NA
HETATM    3  N2  UNL     1       0.901   0.479  -0.169  1.00  0.00    -0.199 N 
HETATM    4  C6  UNL     1      -0.016  -0.222  -1.072  1.00  0.00     0.138 C 
HETATM    5  C7  UNL     1       0.546  -1.641  -0.913  1.00  0.00     0.072 C 
HETATM    6  C15 UNL     1       1.301   1.829  -0.296  1.00  0.00     0.362 C 
HETATM    7  O2  UNL     1       0.878   2.547  -1.231  1.00  0.00    -0.243 OA
HETATM    8  N3  UNL     1       2.193   2.367   0.653  1.00  0.00    -0.213 NA
ENDROOT
BRANCH   4   9
HETATM    9  C8  UNL     1      -1.400  -0.129  -0.587  1.00  0.00     0.001 A 
HETATM   10  C9  UNL     1      -1.711  -0.340   0.750  1.00  0.00    -0.000 A 
HETATM   11  C10 UNL     1      -2.997  -0.249   1.177  1.00  0.00     0.024 A 
HETATM   12  C11 UNL     1      -4.016   0.049   0.317  1.00  0.00     0.094 A 
HETATM   13  C13 UNL     1      -3.691   0.257  -1.011  1.00  0.00     0.024 A 
HETATM   14  C14 UNL     1      -2.406   0.175  -1.483  1.00  0.00    -0.000 A 
BRANCH  12  15
HETATM   15  O1  UNL     1      -5.343   0.158   0.676  1.00  0.00    -0.328 OA
HETATM   16  C12 UNL     1      -5.809  -0.029   1.994  1.00  0.00     0.181 C 
ENDBRANCH  12  15
ENDBRANCH   4   9
BRANCH   1  17
HETATM   17  C4  UNL     1       1.422  -2.837   1.242  1.00  0.00     0.043 C 
BRANCH  17  18
HETATM   18  C2  UNL     1       2.424  -3.754   0.593  1.00  0.00     0.006 C 
HETATM   19  C1  UNL     1       1.957  -4.266  -0.752  1.00  0.00     0.000 C 
HETATM   20  C3  UNL     1       3.810  -3.156   0.528  1.00  0.00     0.000 C 
ENDBRANCH  17  18
ENDBRANCH   1  17
BRANCH   8  21
HETATM   21  C16 UNL     1       2.641   3.724   0.586  1.00  0.00     0.157 C 
BRANCH  21  22
HETATM   22  C17 UNL     1       3.358   4.011  -0.664  1.00  0.00     0.000 C 
HETATM   23  C18 UNL     1       3.550   3.088  -1.597  1.00  0.00    -0.003 C 
ENDBRANCH  21  22
ENDBRANCH   8  21
TORSDOF 6
