REMARK  5 active torsions:
REMARK  status: ('A' for Active; 'I' for Inactive)
REMARK    1  A    between atoms: O1_2  and  C2_3 
REMARK    2  A    between atoms: C5_6  and  C8_9 
REMARK    3  A    between atoms: C9_11  and  N4_47 
REMARK    4  A    between atoms: C33_39  and  C34_40 
REMARK    5  A    between atoms: N4_47  and  C41_48 
ROOT
HETATM    1  C8  UNL     1       0.000   0.182  -0.384  1.00  0.00     0.078 C 
HETATM    2  N1  UNL     1       0.371  -0.732   0.610  1.00  0.00    -0.246 NA
HETATM    3  C9  UNL     1       1.800  -0.971   0.529  1.00  0.00     0.235 C 
HETATM    4  C10 UNL     1       1.944  -2.475   0.243  1.00  0.00     0.192 C 
HETATM    5  O2  UNL     1       2.900  -2.746  -0.706  1.00  0.00    -0.345 OA
HETATM    6  C11 UNL     1       2.365  -3.511  -1.773  1.00  0.00     0.169 C 
HETATM    7  C12 UNL     1       0.951  -3.030  -1.892  1.00  0.00     0.007 A 
HETATM    8  C13 UNL     1       0.549  -2.125  -2.851  1.00  0.00    -0.002 A 
HETATM    9  C14 UNL     1      -0.767  -1.752  -2.855  1.00  0.00    -0.000 A 
HETATM   10  C15 UNL     1      -1.723  -2.216  -1.969  1.00  0.00     0.000 A 
HETATM   11  C16 UNL     1      -1.218  -3.138  -1.024  1.00  0.00    -0.000 A 
HETATM   12  C17 UNL     1       0.059  -3.540  -0.972  1.00  0.00    -0.002 A 
HETATM   13  C18 UNL     1      -3.156  -1.850  -1.941  1.00  0.00     0.002 A 
HETATM   14  C19 UNL     1      -4.005  -2.333  -2.984  1.00  0.00     0.000 A 
HETATM   15  C20 UNL     1      -5.334  -2.150  -3.115  1.00  0.00     0.000 A 
HETATM   16  C21 UNL     1      -5.946  -1.411  -2.125  1.00  0.00     0.000 A 
HETATM   17  C22 UNL     1      -5.187  -0.944  -1.137  1.00  0.00     0.002 A 
HETATM   18  C23 UNL     1      -3.776  -1.114  -0.961  1.00  0.00     0.018 A 
HETATM   19  C24 UNL     1      -3.219  -0.476   0.258  1.00  0.00     0.086 C 
HETATM   20  N2  UNL     1      -3.761  -1.124   1.294  1.00  0.00    -0.244 NA
HETATM   21  C25 UNL     1      -3.647  -1.004   2.699  1.00  0.00     0.099 A 
HETATM   22  C26 UNL     1      -3.793  -2.184   3.404  1.00  0.00     0.021 A 
HETATM   23  C27 UNL     1      -3.705  -2.131   4.780  1.00  0.00     0.002 A 
HETATM   24  C28 UNL     1      -3.480  -0.957   5.461  1.00  0.00     0.002 A 
HETATM   25  C29 UNL     1      -3.331   0.241   4.757  1.00  0.00     0.021 A 
HETATM   26  C30 UNL     1      -3.417   0.190   3.391  1.00  0.00     0.102 A 
HETATM   27  N3  UNL     1      -3.234   1.502   2.803  1.00  0.00    -0.206 NA
HETATM   28  C31 UNL     1      -2.550   1.682   1.534  1.00  0.00     0.281 C 
HETATM   29  O3  UNL     1      -2.102   2.815   1.309  1.00  0.00    -0.265 OA
HETATM   30  C32 UNL     1      -2.323   0.633   0.449  1.00  0.00     0.077 C 
HETATM   31  C33 UNL     1      -1.209   1.005  -0.175  1.00  0.00     0.023 C 
ENDROOT
BRANCH   1  32
HETATM   32  C5  UNL     1       1.108   0.859  -0.999  1.00  0.00     0.018 A 
HETATM   33  C4  UNL     1       1.225   1.150  -2.349  1.00  0.00     0.004 A 
HETATM   34  C3  UNL     1       2.346   1.791  -2.832  1.00  0.00     0.024 A 
HETATM   35  C2  UNL     1       3.384   2.169  -2.030  1.00  0.00     0.094 A 
HETATM   36  C7  UNL     1       3.288   1.888  -0.685  1.00  0.00     0.024 A 
HETATM   37  C6  UNL     1       2.185   1.255  -0.196  1.00  0.00     0.004 A 
BRANCH  35  38
HETATM   38  O1  UNL     1       4.491   2.811  -2.560  1.00  0.00    -0.328 OA
HETATM   39  C1  UNL     1       5.585   3.218  -1.767  1.00  0.00     0.181 C 
ENDBRANCH  35  38
ENDBRANCH   1  32
BRANCH  31  40
HETATM   40  C34 UNL     1      -1.113   2.370  -0.736  1.00  0.00     0.002 A 
HETATM   41  C35 UNL     1       0.059   3.048  -0.537  1.00  0.00    -0.000 A 
HETATM   42  C36 UNL     1       0.291   4.323  -1.010  1.00  0.00    -0.004 A 
HETATM   43  C37 UNL     1      -0.693   4.950  -1.715  1.00  0.00    -0.022 A 
HETATM   44  C38 UNL     1      -0.421   6.328  -2.218  1.00  0.00     0.031 C 
HETATM   45  C39 UNL     1      -1.877   4.301  -1.933  1.00  0.00    -0.004 A 
HETATM   46  C40 UNL     1      -2.094   3.008  -1.444  1.00  0.00    -0.000 A 
ENDBRANCH  31  40
BRANCH   3  47
HETATM   47  N4  UNL     1       2.457  -0.676   1.790  1.00  0.00    -0.246 NA
BRANCH  47  48
HETATM   48  C41 UNL     1       3.866  -0.835   1.889  1.00  0.00     0.078 A 
HETATM   49  C42 UNL     1       4.659  -1.260   0.840  1.00  0.00     0.018 A 
HETATM   50  C43 UNL     1       6.022  -1.400   0.977  1.00  0.00    -0.003 A 
HETATM   51  C44 UNL     1       6.648  -1.114   2.192  1.00  0.00    -0.022 A 
HETATM   52  C45 UNL     1       8.126  -1.267   2.336  1.00  0.00     0.031 C 
HETATM   53  C46 UNL     1       5.882  -0.694   3.237  1.00  0.00    -0.003 A 
HETATM   54  C47 UNL     1       4.523  -0.557   3.093  1.00  0.00     0.018 A 
ENDBRANCH  47  48
ENDBRANCH   3  47
TORSDOF 5
