REMARK  1 active torsions:
REMARK  status: ('A' for Active; 'I' for Inactive)
REMARK    1  A    between atoms: C2_4  and  C5_9 
ROOT
HETATM    1  N1  UNL     1      -3.346   2.395  -0.124  1.00  0.00    -0.059 NA
HETATM    2  C1  UNL     1      -2.607   1.190  -0.029  1.00  0.00     0.240 A 
HETATM    3  N2  UNL     1      -1.281   1.125  -0.068  1.00  0.00    -0.214 NA
HETATM    4  C2  UNL     1      -0.584  -0.026   0.023  1.00  0.00     0.089 A 
HETATM    5  C3  UNL     1      -1.307  -1.197   0.165  1.00  0.00     0.082 A 
HETATM    6  C4  UNL     1      -2.675  -1.153   0.208  1.00  0.00     0.283 A 
HETATM    7  O1  UNL     1      -3.400  -2.184   0.336  1.00  0.00    -0.265 OA
HETATM    8  N3  UNL     1      -3.307   0.053   0.109  1.00  0.00    -0.176 NA
ENDROOT
BRANCH   4   9
HETATM    9  C5  UNL     1       0.873  -0.049  -0.025  1.00  0.00     0.018 A 
HETATM   10  C6  UNL     1       1.564  -1.235   0.069  1.00  0.00     0.004 A 
HETATM   11  C7  UNL     1       2.957  -1.205   0.018  1.00  0.00     0.030 A 
HETATM   12  C8  UNL     1       3.649  -0.029  -0.123  1.00  0.00     0.140 A 
HETATM   13  F1  UNL     1       5.012   0.015  -0.175  1.00  0.00    -0.204 F 
HETATM   14  C9  UNL     1       2.925   1.145  -0.216  1.00  0.00     0.030 A 
HETATM   15  C10 UNL     1       1.529   1.154  -0.168  1.00  0.00     0.004 A 
ENDBRANCH   4   9
TORSDOF 1
