REMARK  2 active torsions:
REMARK  status: ('A' for Active; 'I' for Inactive)
REMARK    1  A    between atoms: O1_2  and  C2_3 
REMARK    2  A    between atoms: C6_7  and  C8_9 
ROOT
HETATM    1  C8  UNL     1       0.111   0.127  -0.028  1.00  0.00     0.083 A 
HETATM    2  N1  UNL     1      -0.293  -1.056   0.241  1.00  0.00    -0.243 NA
HETATM    3  C9  UNL     1      -1.615  -1.610   0.355  1.00  0.00     0.104 A 
HETATM    4  C10 UNL     1      -1.623  -2.944   0.704  1.00  0.00     0.021 A 
HETATM    5  C11 UNL     1      -2.811  -3.651   0.860  1.00  0.00     0.002 A 
HETATM    6  C12 UNL     1      -4.013  -3.015   0.665  1.00  0.00     0.002 A 
HETATM    7  C13 UNL     1      -3.999  -1.672   0.314  1.00  0.00     0.026 A 
HETATM    8  C14 UNL     1      -2.819  -0.974   0.159  1.00  0.00     0.117 A 
HETATM    9  O2  UNL     1      -3.006   0.357  -0.194  1.00  0.00    -0.306 OA
HETATM   10  C15 UNL     1      -2.106   1.397  -0.382  1.00  0.00     0.101 A 
HETATM   11  C16 UNL     1      -2.700   2.611  -0.663  1.00  0.00     0.025 A 
HETATM   12  C17 UNL     1      -1.957   3.761  -0.881  1.00  0.00     0.002 A 
HETATM   13  C18 UNL     1      -0.585   3.650  -0.805  1.00  0.00     0.000 A 
HETATM   14  C19 UNL     1       0.039   2.435  -0.523  1.00  0.00     0.004 A 
HETATM   15  C20 UNL     1      -0.713   1.297  -0.308  1.00  0.00     0.040 A 
ENDROOT
BRANCH   1  16
HETATM   16  C6  UNL     1       1.554   0.339  -0.061  1.00  0.00     0.020 A 
HETATM   17  C5  UNL     1       2.138   1.537  -0.331  1.00  0.00     0.002 A 
HETATM   18  C4  UNL     1       3.513   1.679  -0.349  1.00  0.00     0.002 A 
HETATM   19  C3  UNL     1       4.342   0.583  -0.085  1.00  0.00     0.024 A 
HETATM   20  C2  UNL     1       3.757  -0.622   0.187  1.00  0.00     0.094 A 
HETATM   21  C7  UNL     1       2.394  -0.735   0.198  1.00  0.00     0.026 A 
BRANCH  20  22
HETATM   22  O1  UNL     1       4.490  -1.784   0.465  1.00  0.00    -0.328 OA
HETATM   23  C1  UNL     1       5.902  -1.709   0.463  1.00  0.00     0.181 C 
ENDBRANCH  20  22
ENDBRANCH   1  16
TORSDOF 2
