REMARK  5 active torsions:
REMARK  status: ('A' for Active; 'I' for Inactive)
REMARK    1  A    between atoms: C2_2  and  O1_3 
REMARK    2  A    between atoms: O1_3  and  C3_4 
REMARK    3  A    between atoms: C3_4  and  C4_6 
REMARK    4  A    between atoms: C8_12  and  C9_13 
REMARK    5  A    between atoms: N2_14  and  N3_15 
REMARK       I    between atoms: N3_15  and  C10_16 
ROOT
HETATM    1  C4  UNL     1      -1.427  -1.187   0.152  1.00  0.00     0.085 A 
HETATM    2  C5  UNL     1      -1.957  -2.445   0.341  1.00  0.00     0.104 A 
HETATM    3  N1  UNL     1      -1.169  -3.537   0.371  1.00  0.00    -0.241 NA
HETATM    4  C6  UNL     1       0.165  -3.445   0.219  1.00  0.00     0.110 A 
HETATM    5  C7  UNL     1       0.730  -2.201   0.028  1.00  0.00     0.079 A 
HETATM    6 CL1  UNL     1       2.475  -2.017  -0.178  1.00  0.00    -0.081 Cl
HETATM    7  C8  UNL     1      -0.066  -1.067  -0.006  1.00  0.00     0.040 A 
ENDROOT
BRANCH   7   8
HETATM    8  C9  UNL     1       0.502   0.269  -0.207  1.00  0.00     0.123 C 
HETATM    9  N2  UNL     1       1.774   0.362  -0.353  1.00  0.00    -0.144 NA
BRANCH   9  10
HETATM   10  N3  UNL     1       2.417   1.587  -0.550  1.00  0.00    -0.112 NA
HETATM   11  C10 UNL     1       3.100   2.269   0.493  1.00  0.00     0.275 C 
HETATM   12  N4  UNL     1       3.172   3.688   0.577  1.00  0.00    -0.057 NA
HETATM   13  N5  UNL     1       3.669   1.526   1.390  1.00  0.00    -0.109 N 
ENDBRANCH   9  10
ENDBRANCH   7   8
BRANCH   1  14
HETATM   14  C3  UNL     1      -2.248   0.016   0.113  1.00  0.00     0.297 C 
HETATM   15  O2  UNL     1      -3.489  -0.132   0.261  1.00  0.00    -0.259 OA
BRANCH  14  16
HETATM   16  O1  UNL     1      -1.763   1.280  -0.072  1.00  0.00    -0.298 OA
BRANCH  16  17
HETATM   17  C2  UNL     1      -2.571   2.443  -0.107  1.00  0.00     0.152 C 
HETATM   18  C1  UNL     1      -3.314   2.591   1.207  1.00  0.00     0.035 C 
ENDBRANCH  16  17
ENDBRANCH  14  16
ENDBRANCH   1  14
TORSDOF 5
