REMARK  3 active torsions:
REMARK  status: ('A' for Active; 'I' for Inactive)
REMARK    1  A    between atoms: O1_2  and  C2_3 
REMARK    2  A    between atoms: C5_6  and  C8_9 
REMARK    3  A    between atoms: N2_13  and  C11_16 
ROOT
HETATM    1  C8  UNL     1      -0.866  -0.464  -0.327  1.00  0.00     0.142 A 
HETATM    2  N1  UNL     1      -0.440  -1.489  -0.959  1.00  0.00    -0.187 NA
HETATM    3  C9  UNL     1       0.968  -1.570  -0.965  1.00  0.00     0.356 A 
HETATM    4  O2  UNL     1       1.735  -2.431  -1.483  1.00  0.00    -0.244 OA
HETATM    5  N2  UNL     1       1.432  -0.440  -0.239  1.00  0.00    -0.225 N 
HETATM    6  C10 UNL     1       0.295   0.287   0.183  1.00  0.00     0.286 A 
HETATM    7  O3  UNL     1       0.249   1.360   0.857  1.00  0.00    -0.265 OA
ENDROOT
BRANCH   1   8
HETATM    8  C5  UNL     1      -2.257  -0.070  -0.123  1.00  0.00     0.023 A 
HETATM    9  C4  UNL     1      -3.265  -0.844  -0.642  1.00  0.00     0.004 A 
HETATM   10  C3  UNL     1      -4.594  -0.533  -0.489  1.00  0.00     0.024 A 
HETATM   11  C2  UNL     1      -4.949   0.601   0.214  1.00  0.00     0.094 A 
HETATM   12  C7  UNL     1      -3.947   1.388   0.741  1.00  0.00     0.024 A 
HETATM   13  C6  UNL     1      -2.596   1.061   0.578  1.00  0.00     0.004 A 
BRANCH  11  14
HETATM   14  O1  UNL     1      -6.296   0.965   0.401  1.00  0.00    -0.328 OA
HETATM   15  C1  UNL     1      -7.336   0.189  -0.121  1.00  0.00     0.181 C 
ENDBRANCH  11  14
ENDBRANCH   1   8
BRANCH   5  16
HETATM   16  C11 UNL     1       2.802  -0.098   0.019  1.00  0.00     0.071 A 
HETATM   17  C12 UNL     1       3.724  -1.120   0.117  1.00  0.00     0.019 A 
HETATM   18  C13 UNL     1       5.043  -0.814   0.364  1.00  0.00     0.013 A 
HETATM   19  C14 UNL     1       5.443   0.494   0.514  1.00  0.00     0.058 A 
HETATM   20 CL1  UNL     1       7.138   0.829   0.828  1.00  0.00    -0.082 Cl
HETATM   21  C15 UNL     1       4.526   1.502   0.416  1.00  0.00     0.013 A 
HETATM   22  C16 UNL     1       3.190   1.198   0.166  1.00  0.00     0.019 A 
ENDBRANCH   5  16
TORSDOF 3
