REMARK  3 active torsions:
REMARK  status: ('A' for Active; 'I' for Inactive)
REMARK    1  A    between atoms: O1_2  and  C2_3 
REMARK    2  A    between atoms: C6_7  and  C8_9 
REMARK    3  A    between atoms: C9_12  and  C10_14 
ROOT
HETATM    1  C8  UNL     1      -1.193  -0.406  -0.360  1.00  0.00     0.204 A 
HETATM    2  N1  UNL     1      -1.207  -1.727  -0.606  1.00  0.00    -0.121 NA
HETATM    3  N2  UNL     1       0.023  -2.179  -0.676  1.00  0.00    -0.121 NA
HETATM    4  C9  UNL     1       0.827  -1.120  -0.469  1.00  0.00     0.206 A 
HETATM    5  O2  UNL     1       0.060  -0.075  -0.284  1.00  0.00    -0.268 OA
ENDROOT
BRANCH   4   6
HETATM    6  C10 UNL     1       2.282  -1.137  -0.456  1.00  0.00     0.064 A 
HETATM    7  C11 UNL     1       3.123  -2.212  -0.646  1.00  0.00     0.102 A 
HETATM    8  N3  UNL     1       4.401  -1.861  -0.567  1.00  0.00    -0.244 NA
HETATM    9  C12 UNL     1       4.408  -0.526  -0.318  1.00  0.00     0.082 A 
HETATM   10  C13 UNL     1       5.508   0.293  -0.153  1.00  0.00     0.019 A 
HETATM   11  C17 UNL     1       3.115  -0.060  -0.246  1.00  0.00     0.023 A 
HETATM   12  C14 UNL     1       5.274   1.626   0.092  1.00  0.00     0.002 A 
HETATM   13  C15 UNL     1       3.996   2.138   0.173  1.00  0.00     0.000 A 
HETATM   14  C16 UNL     1       2.928   1.283   0.002  1.00  0.00     0.002 A 
ENDBRANCH   4   6
BRANCH   1  15
HETATM   15  C6  UNL     1      -2.382   0.430  -0.218  1.00  0.00     0.045 A 
HETATM   16  C5  UNL     1      -2.309   1.780   0.035  1.00  0.00     0.004 A 
HETATM   17  C4  UNL     1      -3.435   2.561   0.167  1.00  0.00     0.002 A 
HETATM   18  C3  UNL     1      -4.664   1.950   0.039  1.00  0.00     0.024 A 
HETATM   19  C2  UNL     1      -4.781   0.606  -0.212  1.00  0.00     0.094 A 
HETATM   20  C7  UNL     1      -3.635  -0.121  -0.334  1.00  0.00     0.028 A 
BRANCH  19  21
HETATM   21  O1  UNL     1      -6.057   0.063  -0.328  1.00  0.00    -0.328 OA
HETATM   22  C1  UNL     1      -6.281  -1.306  -0.585  1.00  0.00     0.181 C 
ENDBRANCH  19  21
ENDBRANCH   1  15
TORSDOF 3
