REMARK  5 active torsions:
REMARK  status: ('A' for Active; 'I' for Inactive)
REMARK    1  A    between atoms: O1_2  and  C2_3 
REMARK    2  A    between atoms: C5_6  and  C8_9 
REMARK    3  A    between atoms: C8_9  and  C9_10 
REMARK    4  A    between atoms: C8_9  and  O2_12 
REMARK    5  A    between atoms: O2_12  and  C11_13 
ROOT
HETATM    1  C2  UNL     1      -2.877   0.147  -0.306  1.00  0.00     0.094 A 
HETATM    2  C3  UNL     1      -2.050   1.094  -0.872  1.00  0.00     0.024 A 
HETATM    3  C4  UNL     1      -0.684   0.899  -0.888  1.00  0.00     0.000 A 
HETATM    4  C5  UNL     1      -0.082  -0.220  -0.356  1.00  0.00     0.005 A 
HETATM    5  C6  UNL     1      -0.907  -1.170   0.212  1.00  0.00     0.000 A 
HETATM    6  C7  UNL     1      -2.274  -0.974   0.227  1.00  0.00     0.024 A 
ENDROOT
BRANCH   4   7
HETATM    7  C8  UNL     1       1.398  -0.366  -0.407  1.00  0.00     0.150 C 
BRANCH   7   8
HETATM    8  C9  UNL     1       1.853  -1.514   0.439  1.00  0.00     0.035 C 
HETATM    9  C10 UNL     1       1.477  -1.356   1.898  1.00  0.00     0.003 C 
ENDBRANCH   7   8
BRANCH   7  10
HETATM   10  O2  UNL     1       2.010   0.853  -0.030  1.00  0.00    -0.275 OA
BRANCH  10  11
HETATM   11  C11 UNL     1       3.394   0.945  -0.007  1.00  0.00     0.334 C 
HETATM   12  O3  UNL     1       4.045   2.137   0.361  1.00  0.00    -0.624 OA
HETATM   13  O4  UNL     1       4.043  -0.079  -0.327  1.00  0.00    -0.624 OA
ENDBRANCH  10  11
ENDBRANCH   7  10
ENDBRANCH   4   7
BRANCH   1  14
HETATM   14  O1  UNL     1      -4.260   0.297  -0.265  1.00  0.00    -0.328 OA
HETATM   15  C1  UNL     1      -5.085  -0.692   0.322  1.00  0.00     0.181 C 
ENDBRANCH   1  14
TORSDOF 5
