REMARK  6 active torsions:
REMARK  status: ('A' for Active; 'I' for Inactive)
REMARK    1  A    between atoms: C5_6  and  C7_8 
REMARK       I    between atoms: C7_8  and  N1_10 
REMARK    2  A    between atoms: C9_12  and  O2_13 
REMARK    3  A    between atoms: O2_13  and  C10_14 
REMARK    4  A    between atoms: C12_16  and  C17_25 
REMARK    5  A    between atoms: N3_18  and  C13_19 
REMARK    6  A    between atoms: C13_19  and  C14_20 
ROOT
HETATM    1  C10 UNL     1      -1.500  -1.142   1.036  1.00  0.00     0.183 A 
HETATM    2  C11 UNL     1      -1.581   0.197   0.741  1.00  0.00     0.061 A 
HETATM    3  C12 UNL     1      -2.906   0.598   0.778  1.00  0.00     0.082 A 
HETATM    4  N2  UNL     1      -3.595  -0.506   1.094  1.00  0.00    -0.172 NA
HETATM    5  N3  UNL     1      -2.770  -1.544   1.249  1.00  0.00    -0.225 N 
ENDROOT
BRANCH   1   6
HETATM    6  O2  UNL     1      -0.401  -1.979   1.116  1.00  0.00    -0.269 OA
BRANCH   6   7
HETATM    7  C9  UNL     1       0.872  -1.477   0.889  1.00  0.00     0.226 A 
HETATM    8  C8  UNL     1       1.166  -0.154   0.590  1.00  0.00     0.152 A 
HETATM    9  N1  UNL     1       2.499  -0.017   0.433  1.00  0.00    -0.171 N 
HETATM   10  C7  UNL     1       3.164   1.218   0.131  1.00  0.00     0.282 C 
HETATM   11  N5  UNL     1       3.017  -1.202   0.625  1.00  0.00    -0.055 NA
HETATM   12  O1  UNL     1       2.475   2.281   0.003  1.00  0.00    -0.265 OA
HETATM   13  N4  UNL     1       2.058  -2.093   0.900  1.00  0.00    -0.103 NA
BRANCH  10  14
HETATM   14  C5  UNL     1       4.587   1.305  -0.035  1.00  0.00     0.060 A 
HETATM   15  C4  UNL     1       5.231   2.514   0.128  1.00  0.00     0.005 A 
HETATM   16  C3  UNL     1       6.593   2.618  -0.038  1.00  0.00     0.003 A 
HETATM   17  C2  UNL     1       7.297   1.497  -0.371  1.00  0.00     0.030 A 
HETATM   18  C1  UNL     1       6.689   0.271  -0.543  1.00  0.00     0.140 A 
HETATM   19  F1  UNL     1       7.406  -0.833  -0.875  1.00  0.00    -0.204 F 
HETATM   20  C6  UNL     1       5.320   0.182  -0.372  1.00  0.00     0.034 A 
ENDBRANCH  10  14
ENDBRANCH   6   7
ENDBRANCH   1   6
BRANCH   5  21
HETATM   21  C13 UNL     1      -3.246  -2.862   1.600  1.00  0.00     0.191 C 
BRANCH  21  22
HETATM   22  C14 UNL     1      -3.532  -3.651   0.352  1.00  0.00     0.261 C 
HETATM   23  O3  UNL     1      -2.440  -3.826  -0.461  1.00  0.00    -0.327 OA
HETATM   24  C15 UNL     1      -2.892  -3.608  -1.775  1.00  0.00     0.177 C 
HETATM   25  C16 UNL     1      -3.962  -2.548  -1.487  1.00  0.00     0.177 C 
HETATM   26  O4  UNL     1      -4.554  -3.078  -0.345  1.00  0.00    -0.327 OA
ENDBRANCH  21  22
ENDBRANCH   5  21
BRANCH   3  27
HETATM   27  C17 UNL     1      -3.491   1.924   0.533  1.00  0.00     0.042 C 
HETATM   28  C18 UNL     1      -4.968   1.821   0.262  1.00  0.00     0.006 C 
HETATM   29  C19 UNL     1      -5.631   3.186   0.281  1.00  0.00     0.000 C 
HETATM   30  C20 UNL     1      -4.509   4.224   0.427  1.00  0.00     0.000 C 
HETATM   31  C21 UNL     1      -3.543   4.022  -0.729  1.00  0.00     0.000 C 
HETATM   32  C22 UNL     1      -2.855   2.662  -0.611  1.00  0.00     0.006 C 
ENDBRANCH   3  27
TORSDOF 6
