REMARK  4 active torsions:
REMARK  status: ('A' for Active; 'I' for Inactive)
REMARK    1  A    between atoms: O1_2  and  C2_3 
REMARK    2  A    between atoms: C5_7  and  N2_8 
REMARK       I    between atoms: N2_8  and  C6_9 
REMARK    3  A    between atoms: C6_9  and  C7_11 
REMARK    4  A    between atoms: C9_13  and  C10_14 
REMARK       I    between atoms: C10_14  and  N3_16 
ROOT
HETATM    1  N2  UNL     1       1.291  -1.724  -0.274  1.00  0.00    -0.193 NA
HETATM    2  C6  UNL     1       0.212  -1.041  -0.896  1.00  0.00     0.257 C 
HETATM    3  O2  UNL     1       0.404   0.156  -1.215  1.00  0.00    -0.270 OA
ENDROOT
BRANCH   2   4
HETATM    4  C7  UNL     1      -1.092  -1.659  -1.179  1.00  0.00     0.090 A 
HETATM    5  C8  UNL     1      -1.811  -2.311   0.023  1.00  0.00     0.020 A 
HETATM    6  C9  UNL     1      -2.388  -1.182  -0.746  1.00  0.00     0.088 A 
BRANCH   6   7
HETATM    7  C10 UNL     1      -2.630   0.112  -0.092  1.00  0.00     0.234 C 
HETATM    8  O3  UNL     1      -1.662   0.864   0.152  1.00  0.00    -0.272 OA
HETATM    9  N3  UNL     1      -3.937   0.512   0.263  1.00  0.00    -0.309 N 
HETATM   10  C11 UNL     1      -4.258   1.765   0.908  1.00  0.00     0.117 C 
HETATM   11  C13 UNL     1      -5.125  -0.283   0.025  1.00  0.00     0.163 C 
HETATM   12  C12 UNL     1      -5.241   2.488  -0.026  1.00  0.00     0.084 C 
HETATM   13  S1  UNL     1      -6.278   1.048  -0.511  1.00  0.00    -0.114 SA
ENDBRANCH   6   7
ENDBRANCH   2   4
BRANCH   1  14
HETATM   14  C5  UNL     1       2.554  -1.080  -0.017  1.00  0.00     0.167 A 
HETATM   15  N1  UNL     1       3.484  -1.856   0.580  1.00  0.00    -0.225 NA
HETATM   16  C4  UNL     1       4.715  -1.374   0.878  1.00  0.00     0.103 A 
HETATM   17  C3  UNL     1       4.959  -0.061   0.540  1.00  0.00     0.045 A 
HETATM   18  C2  UNL     1       4.053   0.756  -0.061  1.00  0.00     0.099 A 
HETATM   19  C14 UNL     1       2.800   0.215  -0.348  1.00  0.00     0.063 A 
BRANCH  18  20
HETATM   20  O1  UNL     1       4.332   2.083  -0.391  1.00  0.00    -0.328 OA
HETATM   21  C1  UNL     1       5.618   2.574  -0.075  1.00  0.00     0.181 C 
ENDBRANCH  18  20
ENDBRANCH   1  14
TORSDOF 4
