REMARK  5 active torsions:
REMARK  status: ('A' for Active; 'I' for Inactive)
REMARK    1  A    between atoms: N1_4  and  C5_8 
REMARK    2  A    between atoms: C11_15  and  C12_16 
REMARK    3  A    between atoms: C12_16  and  C13_17 
REMARK    4  A    between atoms: C13_17  and  C14_18 
REMARK    5  A    between atoms: N3_20  and  C16_21 
ROOT
HETATM    1  C5  UNL     1      -3.222  -0.172  -0.273  1.00  0.00     0.149 A 
HETATM    2  C6  UNL     1      -3.589  -0.494   1.011  1.00  0.00     0.051 A 
HETATM    3  C7  UNL     1      -2.656  -0.748   1.991  1.00  0.00     0.074 A 
HETATM    4  N2  UNL     1      -3.062  -1.076   3.307  1.00  0.00    -0.100 NA
HETATM    5  C8  UNL     1      -1.331  -0.663   1.619  1.00  0.00     0.031 A 
HETATM    6  C9  UNL     1      -0.320  -0.897   2.532  1.00  0.00     0.002 A 
HETATM    7  C10 UNL     1       1.013  -0.815   2.195  1.00  0.00    -0.004 A 
HETATM    8  C11 UNL     1       1.400  -0.492   0.914  1.00  0.00    -0.020 A 
HETATM    9  C19 UNL     1       0.396  -0.254  -0.013  1.00  0.00     0.015 A 
HETATM   10  C20 UNL     1      -0.937  -0.339   0.333  1.00  0.00     0.084 A 
HETATM   11  N5  UNL     1      -1.922  -0.104  -0.572  1.00  0.00    -0.228 NA
ENDROOT
BRANCH   8  12
HETATM   12  C12 UNL     1       2.843  -0.383   0.502  1.00  0.00     0.033 C 
BRANCH  12  13
HETATM   13  C13 UNL     1       3.380   1.017   0.643  1.00  0.00     0.052 C 
BRANCH  13  14
HETATM   14  C14 UNL     1       4.790   1.034   0.205  1.00  0.00     0.078 A 
HETATM   15  C15 UNL     1       5.517  -0.052  -0.213  1.00  0.00     0.092 A 
HETATM   16  N3  UNL     1       6.762   0.299  -0.558  1.00  0.00    -0.308 N 
HETATM   17  C18 UNL     1       6.843   1.625  -0.363  1.00  0.00     0.178 A 
HETATM   18  N4  UNL     1       5.646   2.086   0.103  1.00  0.00    -0.229 NA
BRANCH  16  19
HETATM   19  C16 UNL     1       7.795  -0.596  -1.041  1.00  0.00     0.108 C 
HETATM   20  C17 UNL     1       8.582  -1.115   0.148  1.00  0.00     0.027 C 
ENDBRANCH  16  19
ENDBRANCH  13  14
ENDBRANCH  12  13
ENDBRANCH   8  12
BRANCH   1  21
HETATM   21  N1  UNL     1      -4.267   0.065  -1.203  1.00  0.00    -0.258 N 
HETATM   22  C3  UNL     1      -4.135   0.575  -2.581  1.00  0.00     0.143 C 
HETATM   23  C2  UNL     1      -5.515   1.068  -2.970  1.00  0.00     0.149 C 
HETATM   24  C1  UNL     1      -5.812   0.911  -4.425  1.00  0.00     0.035 C 
HETATM   25  O2  UNL     1      -6.328   0.145  -2.219  1.00  0.00    -0.285 OA
HETATM   26  C4  UNL     1      -5.662  -0.132  -1.024  1.00  0.00     0.370 C 
HETATM   27  O1  UNL     1      -6.208  -0.495   0.038  1.00  0.00    -0.238 OA
ENDBRANCH   1  21
TORSDOF 5
