REMARK  13 active torsions:
REMARK  status: ('A' for Active; 'I' for Inactive)
REMARK    1  A    between atoms: C5_5  and  N1_6 
REMARK       I    between atoms: N1_6  and  C6_7 
REMARK    2  A    between atoms: C6_7  and  C7_9 
REMARK    3  A    between atoms: C7_9  and  O2_10 
REMARK    4  A    between atoms: O2_10  and  C8_11 
REMARK    5  A    between atoms: C8_11  and  C9_13 
REMARK    6  A    between atoms: C12_16  and  N2_17 
REMARK    7  A    between atoms: N2_17  and  C13_18 
REMARK    8  A    between atoms: C13_18  and  C15_20 
REMARK    9  A    between atoms: C17_23  and  N4_24 
REMARK       I    between atoms: N4_24  and  C18_25 
REMARK   10  A    between atoms: C18_25  and  C19_27 
REMARK   11  A    between atoms: C19_27  and  C20_28 
REMARK   12  A    between atoms: C19_27  and  C25_35 
REMARK   13  A    between atoms: C20_28  and  N5_29 
ROOT
HETATM    1  C9  UNL     1       0.859   0.984  -0.474  1.00  0.00     0.099 A 
HETATM    2  C10 UNL     1       1.724   2.023  -0.735  1.00  0.00     0.011 A 
HETATM    3  C11 UNL     1       1.267   3.239  -1.125  1.00  0.00     0.039 A 
HETATM    4  C12 UNL     1      -0.089   3.437  -1.261  1.00  0.00     0.160 A 
HETATM    5  N3  UNL     1      -0.935   2.429  -1.007  1.00  0.00    -0.208 NA
HETATM    6  C17 UNL     1      -0.487   1.218  -0.620  1.00  0.00     0.172 A 
ENDROOT
BRANCH   6   7
HETATM    7  N4  UNL     1      -1.417   0.160  -0.355  1.00  0.00    -0.192 NA
HETATM    8  C18 UNL     1      -2.806   0.398  -0.507  1.00  0.00     0.263 C 
HETATM    9  O4  UNL     1      -3.180   1.532  -0.870  1.00  0.00    -0.270 OA
BRANCH   8  10
HETATM   10  C19 UNL     1      -3.789  -0.678  -0.240  1.00  0.00     0.137 C 
BRANCH  10  11
HETATM   11  C20 UNL     1      -5.170  -0.146  -0.552  1.00  0.00     0.264 C 
BRANCH  11  12
HETATM   12  N5  UNL     1      -6.185  -1.179  -0.302  1.00  0.00     0.143 N 
HETATM   13  C21 UNL     1      -5.976  -2.212  -1.308  1.00  0.00     0.282 C 
HETATM   14  C22 UNL     1      -6.441  -1.655  -2.637  1.00  0.00     0.178 C 
HETATM   15  O5  UNL     1      -6.315  -0.262  -2.583  1.00  0.00    -0.350 OA
HETATM   16  C23 UNL     1      -7.341   0.273  -1.807  1.00  0.00     0.178 C 
HETATM   17  C24 UNL     1      -7.500  -0.596  -0.572  1.00  0.00     0.282 C 
ENDBRANCH  11  12
ENDBRANCH  10  11
BRANCH  10  18
HETATM   18  C25 UNL     1      -3.723  -1.167   1.140  1.00  0.00    -0.012 A 
HETATM   19  C26 UNL     1      -3.036  -2.315   1.447  1.00  0.00    -0.004 A 
HETATM   20  C27 UNL     1      -2.989  -2.751   2.751  1.00  0.00    -0.000 A 
HETATM   21  C28 UNL     1      -3.635  -2.023   3.719  1.00  0.00    -0.000 A 
HETATM   22  C29 UNL     1      -4.334  -0.872   3.464  1.00  0.00    -0.000 A 
HETATM   23  C30 UNL     1      -4.357  -0.462   2.129  1.00  0.00    -0.004 A 
ENDBRANCH  10  18
ENDBRANCH   8  10
ENDBRANCH   6   7
BRANCH   1  24
HETATM   24  C8  UNL     1       1.358  -0.316  -0.058  1.00  0.00     0.299 C 
HETATM   25  O3  UNL     1       0.587  -1.269   0.182  1.00  0.00    -0.259 OA
BRANCH  24  26
HETATM   26  O2  UNL     1       2.719  -0.535   0.083  1.00  0.00    -0.288 OA
BRANCH  26  27
HETATM   27  C7  UNL     1       3.180  -1.809   0.487  1.00  0.00     0.241 C 
BRANCH  27  28
HETATM   28  C6  UNL     1       4.667  -1.741   0.547  1.00  0.00     0.288 C 
HETATM   29  N1  UNL     1       5.412  -2.890   0.921  1.00  0.00    -0.185 NA
HETATM   30  O1  UNL     1       5.298  -0.694   0.276  1.00  0.00    -0.267 OA
BRANCH  29  31
HETATM   31  C5  UNL     1       6.822  -2.808   0.971  1.00  0.00     0.185 A 
HETATM   32  C4  UNL     1       7.670  -1.755   0.710  1.00  0.00     0.046 A 
HETATM   33  C3  UNL     1       8.947  -2.210   0.909  1.00  0.00     0.024 A 
HETATM   34  C2  UNL     1       8.838  -3.529   1.287  1.00  0.00     0.080 A 
HETATM   35  C1  UNL     1       9.913  -4.507   1.627  1.00  0.00     0.058 C 
HETATM   36  O6  UNL     1       7.574  -3.839   1.311  1.00  0.00    -0.294 OA
ENDBRANCH  29  31
ENDBRANCH  27  28
ENDBRANCH  26  27
ENDBRANCH  24  26
ENDBRANCH   1  24
BRANCH   4  37
HETATM   37  N2  UNL     1      -0.529   4.724  -1.672  1.00  0.00    -0.255 NA
BRANCH  37  38
HETATM   38  C13 UNL     1       0.399   5.802  -1.941  1.00  0.00     0.105 C 
HETATM   39  C14 UNL     1       1.318   5.350  -3.055  1.00  0.00     0.026 C 
BRANCH  38  40
HETATM   40  C15 UNL     1       1.265   6.115  -0.741  1.00  0.00     0.024 C 
HETATM   41  C16 UNL     1       0.419   6.536   0.458  1.00  0.00     0.002 C 
ENDBRANCH  38  40
ENDBRANCH  37  38
ENDBRANCH   4  37
TORSDOF 13
