REMARK  10 active torsions:
REMARK  status: ('A' for Active; 'I' for Inactive)
REMARK    1  A    between atoms: C2_2  and  O1_3 
REMARK    2  A    between atoms: O1_3  and  C3_4 
REMARK    3  A    between atoms: C6_7  and  N1_10 
REMARK    4  A    between atoms: C9_11  and  S1_12 
REMARK    5  A    between atoms: S1_12  and  C10_13 
REMARK    6  A    between atoms: C10_13  and  C11_14 
REMARK       I    between atoms: C11_14  and  N2_16 
REMARK    7  A    between atoms: N2_16  and  S2_17 
REMARK    8  A    between atoms: S2_17  and  C12_20 
REMARK    9  A    between atoms: N8_31  and  C18_32 
REMARK   10  A    between atoms: C18_32  and  C19_33 
ROOT
HETATM    1  N1  UNL     1      -1.163   0.078  -0.321  1.00  0.00    -0.271 N 
HETATM    2  C9  UNL     1      -0.007  -0.446  -0.750  1.00  0.00     0.178 A 
HETATM    3  N6  UNL     1       0.452  -1.316   0.161  1.00  0.00    -0.201 NA
HETATM    4  C16 UNL     1      -0.416  -1.358   1.195  1.00  0.00     0.199 A 
HETATM    5  N7  UNL     1      -0.693  -1.901   2.400  1.00  0.00    -0.204 NA
HETATM    6  C17 UNL     1      -1.848  -1.367   2.819  1.00  0.00     0.182 A 
HETATM    7  N8  UNL     1      -2.315  -0.489   1.896  1.00  0.00    -0.290 N 
HETATM    8  C24 UNL     1      -1.425  -0.486   0.890  1.00  0.00     0.168 A 
ENDROOT
BRANCH   2   9
HETATM    9  S1  UNL     1       0.788  -0.031  -2.302  1.00  0.00    -0.067 SA
BRANCH   9  10
HETATM   10  C10 UNL     1       2.341  -0.959  -2.491  1.00  0.00     0.155 C 
BRANCH  10  11
HETATM   11  C11 UNL     1       3.257  -0.453  -1.427  1.00  0.00     0.277 C 
HETATM   12  O2  UNL     1       4.046   0.500  -1.569  1.00  0.00    -0.269 OA
HETATM   13  N2  UNL     1       3.228  -1.107  -0.155  1.00  0.00    -0.121 NA
BRANCH  13  14
HETATM   14  S2  UNL     1       4.233  -0.620   1.159  1.00  0.00     0.292 S 
HETATM   15  O3  UNL     1       3.962  -1.606   2.283  1.00  0.00    -0.198 OA
HETATM   16  O4  UNL     1       3.943   0.778   1.620  1.00  0.00    -0.198 OA
BRANCH  14  17
HETATM   17  C12 UNL     1       5.947  -0.794   0.770  1.00  0.00     0.155 A 
HETATM   18  C13 UNL     1       6.806   0.285   0.776  1.00  0.00     0.116 A 
HETATM   19  N3  UNL     1       8.079   0.069   0.473  1.00  0.00    -0.222 NA
HETATM   20  C14 UNL     1       8.608  -1.124   0.157  1.00  0.00     0.200 A 
HETATM   21  N4  UNL     1       7.746  -2.178   0.157  1.00  0.00    -0.209 NA
HETATM   22  C15 UNL     1       6.461  -2.033   0.451  1.00  0.00     0.166 A 
HETATM   23  N5  UNL     1       5.533  -3.136   0.456  1.00  0.00    -0.079 NA
ENDBRANCH  14  17
ENDBRANCH  13  14
ENDBRANCH  10  11
ENDBRANCH   9  10
ENDBRANCH   2   9
BRANCH   1  24
HETATM   24  C6  UNL     1      -1.963   1.043  -0.993  1.00  0.00     0.067 A 
HETATM   25  C5  UNL     1      -2.875   0.694  -1.938  1.00  0.00     0.020 A 
HETATM   26  C4  UNL     1      -3.635   1.681  -2.579  1.00  0.00     0.026 A 
HETATM   27  C3  UNL     1      -3.479   3.021  -2.273  1.00  0.00     0.094 A 
HETATM   28  C8  UNL     1      -2.555   3.363  -1.318  1.00  0.00     0.026 A 
HETATM   29  C7  UNL     1      -1.799   2.375  -0.680  1.00  0.00     0.020 A 
BRANCH  27  30
HETATM   30  O1  UNL     1      -4.271   3.933  -2.955  1.00  0.00    -0.331 OA
BRANCH  30  31
HETATM   31  C2  UNL     1      -4.246   5.314  -2.776  1.00  0.00     0.149 C 
HETATM   32  C1  UNL     1      -4.576   5.780  -1.388  1.00  0.00     0.035 C 
ENDBRANCH  30  31
ENDBRANCH  27  30
ENDBRANCH   1  24
BRANCH   7  33
HETATM   33  C18 UNL     1      -3.551   0.269   2.014  1.00  0.00     0.136 C 
BRANCH  33  34
HETATM   34  C19 UNL     1      -4.690  -0.519   1.491  1.00  0.00     0.004 A 
HETATM   35  C20 UNL     1      -5.209  -0.367   0.231  1.00  0.00     0.018 A 
HETATM   36  C21 UNL     1      -6.252  -1.126  -0.193  1.00  0.00     0.099 A 
HETATM   37  N9  UNL     1      -6.826  -2.054   0.586  1.00  0.00    -0.243 NA
HETATM   38  C22 UNL     1      -6.341  -2.226   1.826  1.00  0.00     0.099 A 
HETATM   39  C23 UNL     1      -5.294  -1.488   2.298  1.00  0.00     0.018 A 
ENDBRANCH  33  34
ENDBRANCH   7  33
TORSDOF 10
