REMARK  7 active torsions:
REMARK  status: ('A' for Active; 'I' for Inactive)
REMARK    1  A    between atoms: O1_2  and  C2_3 
REMARK    2  A    between atoms: C9_12  and  C10_13 
REMARK    3  A    between atoms: C10_13  and  C11_14 
REMARK    4  A    between atoms: C11_14  and  C12_15 
REMARK    5  A    between atoms: C12_15  and  C13_16 
REMARK    6  A    between atoms: C13_16  and  C14_17 
REMARK    7  A    between atoms: C14_17  and  C15_18 
ROOT
HETATM    1  C2  UNL     1      -3.029   0.821   0.754  1.00  0.00     0.118 A 
HETATM    2  C3  UNL     1      -3.298   1.998   0.090  1.00  0.00     0.026 A 
HETATM    3  C4  UNL     1      -2.596   2.366  -1.051  1.00  0.00     0.004 A 
HETATM    4  C5  UNL     1      -1.616   1.565  -1.543  1.00  0.00     0.019 A 
HETATM    5  C6  UNL     1      -1.311   0.368  -0.904  1.00  0.00     0.087 A 
HETATM    6  N1  UNL     1      -0.262  -0.313  -1.580  1.00  0.00    -0.292 N 
HETATM    7  C7  UNL     1       0.217   0.282  -2.813  1.00  0.00     0.134 C 
HETATM    8  C8  UNL     1       0.332  -1.518  -1.127  1.00  0.00     0.255 C 
HETATM    9  O2  UNL     1       1.002  -2.131  -1.996  1.00  0.00    -0.268 OA
HETATM   10  C9  UNL     1       0.272  -2.129   0.184  1.00  0.00     0.042 C 
HETATM   11  C16 UNL     1      -1.017  -2.251   0.843  1.00  0.00     0.176 C 
HETATM   12  O4  UNL     1      -1.823  -1.127   0.954  1.00  0.00    -0.323 OA
HETATM   13  C17 UNL     1      -2.028   0.025   0.234  1.00  0.00     0.132 A 
ENDROOT
BRANCH  10  14
HETATM   14  C10 UNL     1       1.465  -1.912   1.044  1.00  0.00     0.029 C 
BRANCH  14  15
HETATM   15  C11 UNL     1       1.720  -0.467   1.314  1.00  0.00     0.005 C 
BRANCH  15  16
HETATM   16  C12 UNL     1       1.969   0.369   0.096  1.00  0.00     0.000 C 
BRANCH  16  17
HETATM   17  C13 UNL     1       3.153  -0.069  -0.703  1.00  0.00     0.003 C 
BRANCH  17  18
HETATM   18  C14 UNL     1       4.446  -0.033   0.050  1.00  0.00     0.036 C 
BRANCH  18  19
HETATM   19  C15 UNL     1       4.804   1.345   0.557  1.00  0.00     0.182 C 
HETATM   20  O3  UNL     1       6.035   1.204   1.236  1.00  0.00    -0.221 OA
ENDBRANCH  18  19
ENDBRANCH  17  18
ENDBRANCH  16  17
ENDBRANCH  15  16
ENDBRANCH  14  15
ENDBRANCH  10  14
BRANCH   1  21
HETATM   21  O1  UNL     1      -3.708   0.421   1.895  1.00  0.00    -0.326 OA
HETATM   22  C1  UNL     1      -4.728   1.184   2.467  1.00  0.00     0.181 C 
ENDBRANCH   1  21
TORSDOF 7
