REMARK  3 active torsions:
REMARK  status: ('A' for Active; 'I' for Inactive)
REMARK    1  A    between atoms: C4_5  and  C7_8 
REMARK    2  A    between atoms: C9_10  and  S1_14 
REMARK    3  A    between atoms: S1_14  and  N2_17 
ROOT
HETATM    1  C7  UNL     1       1.323  -1.117   0.411  1.00  0.00     0.082 A 
HETATM    2  C8  UNL     1       0.146  -0.402   0.433  1.00  0.00     0.032 A 
HETATM    3  C9  UNL     1      -1.058  -1.021   0.704  1.00  0.00     0.102 A 
HETATM    4  C10 UNL     1      -1.002  -2.385   0.950  1.00  0.00     0.033 A 
HETATM    5  C11 UNL     1       0.207  -3.073   0.919  1.00  0.00     0.100 A 
HETATM    6  N1  UNL     1       1.349  -2.450   0.655  1.00  0.00    -0.244 NA
ENDROOT
BRANCH   3   7
HETATM    7  S1  UNL     1      -2.575  -0.186   0.748  1.00  0.00     0.247 S 
HETATM    8  O1  UNL     1      -2.338   1.220   1.222  1.00  0.00    -0.206 OA
HETATM    9  O2  UNL     1      -3.516  -0.833   1.740  1.00  0.00    -0.206 OA
BRANCH   7  10
HETATM   10  N2  UNL     1      -3.366  -0.144  -0.765  1.00  0.00    -0.172 NA
HETATM   11  C12 UNL     1      -2.632   0.535  -1.790  1.00  0.00     0.120 C 
HETATM   12  C13 UNL     1      -2.392   1.976  -1.465  1.00  0.00     0.161 C 
HETATM   13  O3  UNL     1      -3.431   2.563  -0.773  1.00  0.00    -0.351 OA
HETATM   14  C14 UNL     1      -4.650   1.946  -0.954  1.00  0.00     0.161 C 
HETATM   15  C15 UNL     1      -4.652   0.494  -0.596  1.00  0.00     0.120 C 
ENDBRANCH   7  10
ENDBRANCH   3   7
BRANCH   1  16
HETATM   16  C4  UNL     1       2.579  -0.457   0.125  1.00  0.00     0.018 A 
HETATM   17  C3  UNL     1       3.780  -1.163   0.099  1.00  0.00     0.004 A 
HETATM   18  C2  UNL     1       4.921  -0.451  -0.182  1.00  0.00     0.030 A 
HETATM   19  C1  UNL     1       4.935   0.893  -0.433  1.00  0.00     0.140 A 
HETATM   20  F1  UNL     1       6.058   1.589  -0.709  1.00  0.00    -0.204 F 
HETATM   21  C6  UNL     1       3.740   1.572  -0.403  1.00  0.00     0.030 A 
HETATM   22  C5  UNL     1       2.573   0.894  -0.125  1.00  0.00     0.004 A 
ENDBRANCH   1  16
TORSDOF 3
