REMARK  9 active torsions:
REMARK  status: ('A' for Active; 'I' for Inactive)
REMARK    1  A    between atoms: C2_2  and  O1_3 
REMARK    2  A    between atoms: O1_3  and  C3_4 
REMARK    3  A    between atoms: C6_7  and  N1_8 
REMARK    4  A    between atoms: N1_8  and  S1_9 
REMARK    5  A    between atoms: S1_9  and  C7_12 
REMARK    6  A    between atoms: C10_15  and  C19_25 
REMARK    7  A    between atoms: C11_16  and  O4_17 
REMARK    8  A    between atoms: O4_17  and  C12_18 
REMARK    9  A    between atoms: C12_18  and  C13_19 
ROOT
HETATM    1  C7  UNL     1      -0.418   1.440   0.048  1.00  0.00     0.107 A 
HETATM    2  C8  UNL     1      -0.814   0.946   1.273  1.00  0.00     0.013 A 
HETATM    3  C9  UNL     1       0.103   0.265   2.077  1.00  0.00     0.007 A 
HETATM    4  C10 UNL     1       1.408   0.089   1.640  1.00  0.00     0.094 A 
HETATM    5  C11 UNL     1       1.796   0.586   0.416  1.00  0.00     0.099 A 
HETATM    6  C18 UNL     1       0.896   1.257  -0.380  1.00  0.00     0.037 A 
ENDROOT
BRANCH   1   7
HETATM    7  S1  UNL     1      -1.486   2.303  -1.026  1.00  0.00     0.285 S 
HETATM    8  O2  UNL     1      -0.699   3.293  -1.837  1.00  0.00    -0.198 OA
HETATM    9  O3  UNL     1      -2.508   3.086  -0.252  1.00  0.00    -0.198 OA
BRANCH   7  10
HETATM   10  N1  UNL     1      -2.282   1.185  -2.105  1.00  0.00    -0.158 NA
BRANCH  10  11
HETATM   11  C6  UNL     1      -3.122   0.182  -1.533  1.00  0.00     0.094 A 
HETATM   12  C5  UNL     1      -4.031   0.473  -0.538  1.00  0.00     0.022 A 
HETATM   13  C4  UNL     1      -4.835  -0.518   0.000  1.00  0.00     0.026 A 
HETATM   14  C3  UNL     1      -4.769  -1.828  -0.423  1.00  0.00     0.094 A 
HETATM   15  C21 UNL     1      -3.861  -2.125  -1.418  1.00  0.00     0.026 A 
HETATM   16  C20 UNL     1      -3.058  -1.130  -1.955  1.00  0.00     0.022 A 
BRANCH  14  17
HETATM   17  O1  UNL     1      -5.569  -2.838   0.106  1.00  0.00    -0.331 OA
BRANCH  17  18
HETATM   18  C2  UNL     1      -6.512  -2.620   1.115  1.00  0.00     0.149 C 
HETATM   19  C1  UNL     1      -5.907  -2.081   2.390  1.00  0.00     0.035 C 
ENDBRANCH  17  18
ENDBRANCH  14  17
ENDBRANCH  10  11
ENDBRANCH   7  10
ENDBRANCH   1   7
BRANCH   5  20
HETATM   20  O4  UNL     1       3.111   0.386   0.021  1.00  0.00    -0.331 OA
BRANCH  20  21
HETATM   21  C12 UNL     1       3.520   0.896  -1.243  1.00  0.00     0.149 C 
BRANCH  21  22
HETATM   22  C13 UNL     1       4.958   0.589  -1.498  1.00  0.00     0.030 C 
HETATM   23  C14 UNL     1       5.290  -0.868  -1.512  1.00  0.00     0.003 C 
HETATM   24  C15 UNL     1       6.262  -1.096  -0.374  1.00  0.00     0.000 C 
HETATM   25  C16 UNL     1       6.119   0.143   0.511  1.00  0.00     0.000 C 
HETATM   26  C17 UNL     1       5.909   1.218  -0.534  1.00  0.00     0.003 C 
ENDBRANCH  21  22
ENDBRANCH  20  21
ENDBRANCH   5  20
BRANCH   4  27
HETATM   27  C19 UNL     1       2.391  -0.625   2.470  1.00  0.00     0.421 C 
HETATM   28  F1  UNL     1       3.485   0.177   2.797  1.00  0.00    -0.166 F 
HETATM   29  F2  UNL     1       1.797  -0.990   3.665  1.00  0.00    -0.166 F 
HETATM   30  F3  UNL     1       2.827  -1.794   1.869  1.00  0.00    -0.166 F 
ENDBRANCH   4  27
TORSDOF 9
