REMARK  8 active torsions:
REMARK  status: ('A' for Active; 'I' for Inactive)
REMARK    1  A    between atoms: C1_2  and  C2_4 
REMARK    2  A    between atoms: C2_4  and  C3_5 
REMARK    3  A    between atoms: C5_7  and  O3_8 
REMARK    4  A    between atoms: O3_8  and  N1_9 
REMARK       I    between atoms: N1_9  and  C6_10 
REMARK    5  A    between atoms: C6_10  and  C7_12 
REMARK    6  A    between atoms: C14_20  and  C15_21 
REMARK    7  A    between atoms: C20_26  and  S1_27 
REMARK    8  A    between atoms: S1_27  and  N3_30 
ROOT
HETATM    1  C3  UNL     1       0.224  -0.654   0.398  1.00  0.00    -0.009 A 
HETATM    2  C4  UNL     1       1.412   0.066   0.094  1.00  0.00     0.023 A 
HETATM    3  C5  UNL     1       1.637   0.639  -1.115  1.00  0.00     0.125 A 
HETATM    4  C12 UNL     1       0.638   0.500  -2.086  1.00  0.00     0.027 A 
HETATM    5  C13 UNL     1      -0.494  -0.183  -1.812  1.00  0.00     0.002 A 
HETATM    6  C14 UNL     1      -0.733  -0.776  -0.572  1.00  0.00    -0.003 A 
ENDROOT
BRANCH   6   7
HETATM    7  C15 UNL     1      -1.944  -1.557  -0.405  1.00  0.00     0.011 A 
HETATM    8  C16 UNL     1      -1.873  -2.953  -0.326  1.00  0.00     0.001 A 
HETATM    9  C17 UNL     1      -3.027  -3.683  -0.288  1.00  0.00     0.000 A 
HETATM   10  C18 UNL     1      -4.271  -3.093  -0.323  1.00  0.00     0.001 A 
HETATM   11  C19 UNL     1      -4.305  -1.703  -0.401  1.00  0.00     0.012 A 
HETATM   12  C20 UNL     1      -3.176  -0.952  -0.438  1.00  0.00     0.098 A 
BRANCH  12  13
HETATM   13  S1  UNL     1      -3.374   0.805  -0.430  1.00  0.00     0.247 S 
HETATM   14  O5  UNL     1      -2.590   1.497  -1.464  1.00  0.00    -0.206 OA
HETATM   15  O6  UNL     1      -2.877   1.273   0.937  1.00  0.00    -0.206 OA
BRANCH  13  16
HETATM   16  N3  UNL     1      -5.068   1.184  -0.462  1.00  0.00    -0.172 NA
HETATM   17  C21 UNL     1      -5.619   0.621   0.733  1.00  0.00     0.120 C 
HETATM   18  C22 UNL     1      -6.757   1.303   1.361  1.00  0.00     0.161 C 
HETATM   19  O7  UNL     1      -7.325   2.232   0.492  1.00  0.00    -0.351 OA
HETATM   20  C23 UNL     1      -6.316   3.192   0.274  1.00  0.00     0.161 C 
HETATM   21  C24 UNL     1      -5.273   2.583  -0.645  1.00  0.00     0.120 C 
ENDBRANCH  13  16
ENDBRANCH  12  13
ENDBRANCH   6   7
BRANCH   1  22
HETATM   22  C2  UNL     1       0.047  -1.202   1.731  1.00  0.00     0.124 C 
BRANCH  22  23
HETATM   23  C1  UNL     1       0.340  -2.591   1.991  1.00  0.00     0.190 C 
HETATM   24  O1  UNL     1       0.045  -3.082   3.287  1.00  0.00    -0.647 OA
HETATM   25  O2  UNL     1       0.829  -3.406   1.186  1.00  0.00    -0.647 OA
ENDBRANCH  22  23
ENDBRANCH   1  22
BRANCH   3  26
HETATM   26  O3  UNL     1       2.733   1.324  -1.459  1.00  0.00    -0.208 OA
BRANCH  26  27
HETATM   27  N1  UNL     1       3.936   1.495  -0.918  1.00  0.00    -0.083 NA
HETATM   28  C6  UNL     1       4.769   0.580  -0.257  1.00  0.00     0.302 C 
HETATM   29  O4  UNL     1       4.350  -0.598  -0.134  1.00  0.00    -0.263 OA
BRANCH  28  30
HETATM   30  C7  UNL     1       6.082   0.888   0.296  1.00  0.00     0.063 A 
HETATM   31  C8  UNL     1       7.023   1.661  -0.359  1.00  0.00     0.026 A 
HETATM   32  C9  UNL     1       8.259   1.951   0.232  1.00  0.00     0.099 A 
HETATM   33  N2  UNL     1       8.578   1.484   1.467  1.00  0.00    -0.242 NA
HETATM   34  C10 UNL     1       7.681   0.728   2.130  1.00  0.00     0.099 A 
HETATM   35  C11 UNL     1       6.438   0.427   1.557  1.00  0.00     0.026 A 
ENDBRANCH  28  30
ENDBRANCH  26  27
ENDBRANCH   3  26
TORSDOF 8
