REMARK  12 active torsions:
REMARK  status: ('A' for Active; 'I' for Inactive)
REMARK    1  A    between atoms: C1_2  and  C2_4 
REMARK    2  A    between atoms: C7_9  and  N1_10 
REMARK       I    between atoms: N1_10  and  C8_11 
REMARK    3  A    between atoms: C8_11  and  C9_13 
REMARK    4  A    between atoms: C9_13  and  C10_14 
REMARK    5  A    between atoms: C9_13  and  N2_21 
REMARK    6  A    between atoms: C10_14  and  C11_15 
REMARK       I    between atoms: N2_21  and  C17_22 
REMARK    7  A    between atoms: C17_22  and  S1_24 
REMARK    8  A    between atoms: S1_24  and  C18_25 
REMARK    9  A    between atoms: C18_25  and  C19_26 
REMARK   10  A    between atoms: C22_29  and  O5_30 
REMARK   11  A    between atoms: O5_30  and  C23_31 
REMARK   12  A    between atoms: C23_31  and  C24_32 
ROOT
HETATM    1  C9  UNL     1      -1.093   1.046   0.288  1.00  0.00     0.125 C 
ENDROOT
BRANCH   1   2
HETATM    2  C8  UNL     1      -2.468   1.267   0.688  1.00  0.00     0.293 C 
HETATM    3  N1  UNL     1      -3.194   0.352   1.521  1.00  0.00    -0.207 NA
HETATM    4  O3  UNL     1      -3.121   2.302   0.316  1.00  0.00    -0.264 OA
BRANCH   3   5
HETATM    5  C7  UNL     1      -4.538   0.617   1.884  1.00  0.00     0.090 A 
HETATM    6  C2  UNL     1      -5.195  -0.284   2.684  1.00  0.00     0.082 A 
HETATM    7  C3  UNL     1      -6.513  -0.057   3.062  1.00  0.00     0.008 A 
HETATM    8  C4  UNL     1      -7.207   1.067   2.656  1.00  0.00     0.000 A 
HETATM    9  C5  UNL     1      -6.531   1.974   1.845  1.00  0.00     0.002 A 
HETATM   10  C6  UNL     1      -5.206   1.759   1.457  1.00  0.00     0.019 A 
BRANCH   6  11
HETATM   11  C1  UNL     1      -4.480  -1.476   3.121  1.00  0.00     0.212 C 
HETATM   12  O1  UNL     1      -3.173  -1.750   2.772  1.00  0.00    -0.644 OA
HETATM   13  O2  UNL     1      -5.090  -2.311   3.864  1.00  0.00    -0.644 OA
ENDBRANCH   6  11
ENDBRANCH   3   5
ENDBRANCH   1   2
BRANCH   1  14
HETATM   14  C10 UNL     1      -0.719  -0.376   0.176  1.00  0.00     0.077 C 
BRANCH  14  15
HETATM   15  C11 UNL     1      -1.503  -1.164  -0.798  1.00  0.00    -0.016 A 
HETATM   16  C12 UNL     1      -1.060  -1.252  -2.093  1.00  0.00    -0.004 A 
HETATM   17  C13 UNL     1      -1.771  -1.990  -3.041  1.00  0.00    -0.000 A 
HETATM   18  C14 UNL     1      -2.920  -2.627  -2.661  1.00  0.00    -0.000 A 
HETATM   19  C15 UNL     1      -3.340  -2.523  -1.363  1.00  0.00    -0.000 A 
HETATM   20  C16 UNL     1      -2.652  -1.804  -0.430  1.00  0.00    -0.004 A 
ENDBRANCH  14  15
ENDBRANCH   1  14
BRANCH   1  21
HETATM   21  N2  UNL     1      -0.459   1.979  -0.531  1.00  0.00    -0.202 NA
HETATM   22  C17 UNL     1      -0.910   2.357  -1.791  1.00  0.00     0.307 C 
HETATM   23  O4  UNL     1      -1.948   1.861  -2.275  1.00  0.00    -0.258 OA
BRANCH  22  24
HETATM   24  S1  UNL     1      -0.022   3.557  -2.753  1.00  0.00    -0.048 SA
BRANCH  24  25
HETATM   25  C18 UNL     1       1.393   4.138  -1.794  1.00  0.00     0.093 C 
BRANCH  25  26
HETATM   26  C19 UNL     1       2.382   3.057  -1.562  1.00  0.00    -0.011 A 
HETATM   27  C20 UNL     1       3.411   2.808  -2.440  1.00  0.00    -0.001 A 
HETATM   28  C21 UNL     1       4.325   1.800  -2.202  1.00  0.00     0.024 A 
HETATM   29  C22 UNL     1       4.264   0.992  -1.088  1.00  0.00     0.095 A 
HETATM   30  C30 UNL     1       3.229   1.236  -0.198  1.00  0.00     0.024 A 
HETATM   31  C31 UNL     1       2.316   2.242  -0.433  1.00  0.00    -0.001 A 
BRANCH  29  32
HETATM   32  O5  UNL     1       5.207  -0.010  -0.893  1.00  0.00    -0.326 OA
BRANCH  32  33
HETATM   33  C23 UNL     1       5.153  -0.845   0.248  1.00  0.00     0.175 C 
BRANCH  33  34
HETATM   34  C24 UNL     1       6.236  -1.842   0.274  1.00  0.00     0.008 A 
HETATM   35  C25 UNL     1       6.076  -3.035  -0.372  1.00  0.00    -0.002 A 
HETATM   36  C26 UNL     1       7.074  -3.990  -0.362  1.00  0.00    -0.000 A 
HETATM   37  C27 UNL     1       8.243  -3.714   0.318  1.00  0.00    -0.000 A 
HETATM   38  C28 UNL     1       8.409  -2.523   0.965  1.00  0.00    -0.000 A 
HETATM   39  C29 UNL     1       7.398  -1.585   0.941  1.00  0.00    -0.002 A 
ENDBRANCH  33  34
ENDBRANCH  32  33
ENDBRANCH  29  32
ENDBRANCH  25  26
ENDBRANCH  24  25
ENDBRANCH  22  24
ENDBRANCH   1  21
TORSDOF 12
