REMARK  4 active torsions:
REMARK  status: ('A' for Active; 'I' for Inactive)
REMARK       I    between atoms: C2_2  and  N1_4 
REMARK    1  A    between atoms: C3_5  and  N2_6 
REMARK    2  A    between atoms: N2_6  and  C4_7 
REMARK    3  A    between atoms: C7_10  and  C8_11 
REMARK    4  A    between atoms: C9_12  and  C10_13 
ROOT
HETATM    1  C4  UNL     1      -1.327  -0.499  -0.313  1.00  0.00     0.100 A 
HETATM    2  C5  UNL     1      -1.028   0.147   0.874  1.00  0.00     0.020 A 
HETATM    3  C6  UNL     1       0.281   0.367   1.259  1.00  0.00     0.002 A 
HETATM    4  C7  UNL     1       1.310  -0.071   0.434  1.00  0.00     0.000 A 
HETATM    5  C16 UNL     1       1.000  -0.713  -0.744  1.00  0.00     0.002 A 
HETATM    6  C17 UNL     1      -0.326  -0.930  -1.123  1.00  0.00     0.020 A 
ENDROOT
BRANCH   1   7
HETATM    7  N2  UNL     1      -2.715  -0.678  -0.621  1.00  0.00    -0.060 NA
BRANCH   7   8
HETATM    8  C3  UNL     1      -3.745  -0.219   0.244  1.00  0.00     0.745 A 
HETATM    9  N1  UNL     1      -5.075   0.266   0.030  1.00  0.00    -0.056 N 
HETATM   10  C2  UNL     1      -5.946   0.504  -1.070  1.00  0.00     0.260 C 
HETATM   11  C18 UNL     1      -5.104   0.394   1.445  1.00  0.00     0.385 A 
HETATM   12  C1  UNL     1      -5.482   0.215  -2.446  1.00  0.00     0.099 C 
HETATM   13  O1  UNL     1      -7.091   0.956  -0.832  1.00  0.00    -0.271 OA
HETATM   14  N3  UNL     1      -3.758  -0.107   1.540  1.00  0.00    -0.002 NA
HETATM   15  O2  UNL     1      -5.950   0.781   2.266  1.00  0.00    -0.243 OA
ENDBRANCH   7   8
ENDBRANCH   1   7
BRANCH   4  16
HETATM   16  C8  UNL     1       2.700   0.142   0.804  1.00  0.00     0.000 C 
HETATM   17  C9  UNL     1       3.648  -0.279   0.013  1.00  0.00     0.000 C 
BRANCH  17  18
HETATM   18  C10 UNL     1       5.061  -0.142   0.243  1.00  0.00     0.000 A 
HETATM   19  C11 UNL     1       5.571   0.465   1.353  1.00  0.00     0.000 A 
HETATM   20  C12 UNL     1       6.937   0.560   1.507  1.00  0.00     0.000 A 
HETATM   21  C13 UNL     1       7.817   0.051   0.554  1.00  0.00     0.000 A 
HETATM   22  C14 UNL     1       7.293  -0.561  -0.566  1.00  0.00     0.000 A 
HETATM   23  C15 UNL     1       5.927  -0.649  -0.706  1.00  0.00     0.000 A 
ENDBRANCH  17  18
ENDBRANCH   4  16
TORSDOF 4
