REMARK  11 active torsions:
REMARK  status: ('A' for Active; 'I' for Inactive)
REMARK    1  A    between atoms: C5_6  and  C6_7 
REMARK    2  A    between atoms: C6_7  and  C7_8 
REMARK    3  A    between atoms: C7_8  and  C8_9 
REMARK    4  A    between atoms: C7_8  and  C15_16 
REMARK    5  A    between atoms: C8_9  and  C9_10 
REMARK    6  A    between atoms: C9_10  and  C10_11 
REMARK    7  A    between atoms: C10_11  and  C11_12 
REMARK    8  A    between atoms: C11_12  and  C12_13 
REMARK    9  A    between atoms: C12_13  and  C13_14 
REMARK   10  A    between atoms: C15_16  and  C16_17 
REMARK   11  A    between atoms: C16_17  and  C17_18 
ROOT
HETATM    1  C7  UNL     1      -0.148  -1.033   0.346  1.00  0.00     0.005 C 
ENDROOT
BRANCH   1   2
HETATM    2  C6  UNL     1       0.423   0.232  -0.179  1.00  0.00     0.026 C 
BRANCH   2   3
HETATM    3  C5  UNL     1      -0.592   1.296  -0.274  1.00  0.00    -0.020 A 
HETATM    4  C4  UNL     1      -1.334   1.496  -1.407  1.00  0.00    -0.004 A 
HETATM    5  C3  UNL     1      -2.285   2.490  -1.504  1.00  0.00     0.002 A 
HETATM    6  C2  UNL     1      -2.468   3.296  -0.395  1.00  0.00     0.027 A 
HETATM    7  C1  UNL     1      -1.731   3.107   0.748  1.00  0.00     0.131 A 
HETATM    8  O1  UNL     1      -1.917   3.919   1.861  1.00  0.00    -0.190 OA
HETATM    9  C24 UNL     1      -0.796   2.111   0.809  1.00  0.00     0.023 A 
ENDBRANCH   2   3
ENDBRANCH   1   2
BRANCH   1  10
HETATM   10  C8  UNL     1      -0.739  -0.907   1.710  1.00  0.00     0.000 C 
BRANCH  10  11
HETATM   11  C9  UNL     1      -1.287  -2.221   2.189  1.00  0.00     0.000 C 
BRANCH  11  12
HETATM   12  C10 UNL     1      -2.356  -2.701   1.256  1.00  0.00     0.000 C 
BRANCH  12  13
HETATM   13  C11 UNL     1      -3.460  -1.690   1.211  1.00  0.00     0.000 C 
BRANCH  13  14
HETATM   14  C12 UNL     1      -4.561  -2.163   0.290  1.00  0.00     0.000 C 
BRANCH  14  15
HETATM   15  C13 UNL     1      -4.063  -2.373  -1.105  1.00  0.00     0.000 C 
HETATM   16  C14 UNL     1      -3.522  -1.072  -1.644  1.00  0.00     0.000 C 
ENDBRANCH  14  15
ENDBRANCH  13  14
ENDBRANCH  12  13
ENDBRANCH  11  12
ENDBRANCH  10  11
ENDBRANCH   1  10
BRANCH   1  17
HETATM   17  C15 UNL     1       0.691  -2.231   0.115  1.00  0.00     0.005 C 
BRANCH  17  18
HETATM   18  C16 UNL     1       2.035  -2.165   0.746  1.00  0.00     0.026 C 
BRANCH  18  19
HETATM   19  C17 UNL     1       2.791  -1.017   0.220  1.00  0.00    -0.025 A 
HETATM   20  C18 UNL     1       2.997   0.106   0.992  1.00  0.00     0.007 A 
HETATM   21  C19 UNL     1       3.717   1.202   0.544  1.00  0.00     0.057 A 
HETATM   22 CL1  UNL     1       3.958   2.611   1.555  1.00  0.00    -0.082 Cl
HETATM   23  C20 UNL     1       4.224   1.108  -0.736  1.00  0.00     0.011 A 
HETATM   24  C21 UNL     1       4.024  -0.011  -1.519  1.00  0.00    -0.004 A 
HETATM   25  C22 UNL     1       3.304  -1.094  -1.057  1.00  0.00    -0.026 A 
HETATM   26  C23 UNL     1       3.096  -2.295  -1.911  1.00  0.00     0.031 C 
ENDBRANCH  18  19
ENDBRANCH  17  18
ENDBRANCH   1  17
TORSDOF 11
