REMARK  4 active torsions:
REMARK  status: ('A' for Active; 'I' for Inactive)
REMARK    1  A    between atoms: C2_2  and  C3_3 
REMARK    2  A    between atoms: C10_12  and  C20_22 
REMARK    3  A    between atoms: C11_13  and  C12_14 
REMARK    4  A    between atoms: C13_15  and  C14_16 
ROOT
HETATM    1  C3  UNL     1      -1.139  -0.570   1.363  1.00  0.00     0.067 A 
HETATM    2  N1  UNL     1      -2.483  -0.409   1.350  1.00  0.00    -0.249 NA
HETATM    3  C4  UNL     1      -3.104   0.221   0.321  1.00  0.00     0.083 A 
HETATM    4  C5  UNL     1      -4.464   0.386   0.310  1.00  0.00     0.049 A 
HETATM    5  C6  UNL     1      -5.104   1.029  -0.727  1.00  0.00     0.142 A 
HETATM    6  F1  UNL     1      -6.432   1.231  -0.809  1.00  0.00    -0.204 F 
HETATM    7  C7  UNL     1      -4.313   1.500  -1.757  1.00  0.00     0.030 A 
HETATM    8  C8  UNL     1      -2.952   1.342  -1.759  1.00  0.00     0.004 A 
HETATM    9  C9  UNL     1      -2.348   0.698  -0.713  1.00  0.00     0.023 A 
HETATM   10  C10 UNL     1      -0.954   0.527  -0.692  1.00  0.00     0.063 A 
HETATM   11  C11 UNL     1      -0.321  -0.112   0.350  1.00  0.00     0.059 A 
ENDROOT
BRANCH  11  12
HETATM   12  C12 UNL     1       1.100  -0.305   0.384  1.00  0.00    -0.058 C 
HETATM   13  C13 UNL     1       2.294  -0.459   0.424  1.00  0.00    -0.059 C 
BRANCH  13  14
HETATM   14  C14 UNL     1       3.717  -0.627   0.485  1.00  0.00     0.042 A 
HETATM   15  C15 UNL     1       4.534  -0.434  -0.607  1.00  0.00     0.008 A 
HETATM   16  C16 UNL     1       5.911  -0.602  -0.543  1.00  0.00     0.001 A 
HETATM   17  C17 UNL     1       6.465  -0.967   0.642  1.00  0.00     0.000 A 
HETATM   18  C18 UNL     1       5.703  -1.170   1.748  1.00  0.00     0.001 A 
HETATM   19  C19 UNL     1       4.327  -0.998   1.663  1.00  0.00     0.008 A 
ENDBRANCH  13  14
ENDBRANCH  11  12
BRANCH   1  20
HETATM   20  C2  UNL     1      -0.475  -1.266   2.512  1.00  0.00     0.046 C 
HETATM   21  C1  UNL     1      -0.066  -2.677   2.137  1.00  0.00     0.007 C 
ENDBRANCH   1  20
BRANCH  10  22
HETATM   22  C20 UNL     1      -0.182   1.050  -1.817  1.00  0.00     0.267 C 
HETATM   23  N2  UNL     1      -0.798   1.703  -2.910  1.00  0.00    -0.057 NA
HETATM   24  O1  UNL     1       1.083   0.907  -1.804  1.00  0.00    -0.271 OA
ENDBRANCH  10  22
TORSDOF 4
