REMARK  5 active torsions:
REMARK  status: ('A' for Active; 'I' for Inactive)
REMARK    1  A    between atoms: C5_5  and  S1_9 
REMARK    2  A    between atoms: S1_9  and  N1_12 
REMARK    3  A    between atoms: N1_12  and  C8_13 
REMARK    4  A    between atoms: N1_12  and  C13_19 
REMARK    5  A    between atoms: C8_13  and  C9_14 
ROOT
HETATM    1  N1  UNL     1      -0.843   0.635   0.263  1.00  0.00    -0.270 N 
ENDROOT
BRANCH   1   2
HETATM    2  S1  UNL     1       0.097   0.125  -1.022  1.00  0.00     0.264 S 
HETATM    3  O1  UNL     1      -0.600  -1.016  -1.754  1.00  0.00    -0.200 OA
HETATM    4  O2  UNL     1       0.235   1.235  -2.025  1.00  0.00    -0.200 OA
BRANCH   2   5
HETATM    5  C5  UNL     1       1.712  -0.396  -0.594  1.00  0.00     0.104 A 
HETATM    6  C4  UNL     1       1.876  -1.741  -0.287  1.00  0.00     0.013 A 
HETATM    7  C3  UNL     1       3.091  -2.286   0.064  1.00  0.00    -0.003 A 
HETATM    8  C2  UNL     1       4.179  -1.426   0.103  1.00  0.00    -0.011 A 
HETATM    9  C1  UNL     1       5.479  -2.041   0.484  1.00  0.00     0.032 C 
HETATM   10  C7  UNL     1       4.050  -0.092  -0.195  1.00  0.00     0.054 A 
HETATM   11  C6  UNL     1       2.803   0.417  -0.545  1.00  0.00     0.024 A 
HETATM   12 CL1  UNL     1       5.463   0.936  -0.126  1.00  0.00    -0.083 Cl
ENDBRANCH   2   5
ENDBRANCH   1   2
BRANCH   1  13
HETATM   13  C8  UNL     1      -1.134  -0.292   1.285  1.00  0.00     0.164 C 
BRANCH  13  14
HETATM   14  C9  UNL     1      -2.353  -1.088   1.068  1.00  0.00     0.101 A 
HETATM   15  C10 UNL     1      -3.167  -1.033  -0.070  1.00  0.00     0.024 A 
HETATM   16  C11 UNL     1      -4.191  -1.946   0.162  1.00  0.00     0.029 A 
HETATM   17  C12 UNL     1      -3.936  -2.487   1.407  1.00  0.00     0.122 A 
HETATM   18  O3  UNL     1      -2.844  -1.954   1.905  1.00  0.00    -0.307 OA
ENDBRANCH  13  14
ENDBRANCH   1  13
BRANCH   1  19
HETATM   19  C13 UNL     1      -1.758   1.685   0.048  1.00  0.00     0.093 C 
HETATM   20  C14 UNL     1      -1.931   2.621   1.204  1.00  0.00     0.023 C 
HETATM   21  C15 UNL     1      -2.708   3.764   0.550  1.00  0.00     0.002 C 
HETATM   22  C16 UNL     1      -2.242   3.776  -0.886  1.00  0.00     0.002 C 
HETATM   23  C17 UNL     1      -1.279   2.605  -1.038  1.00  0.00     0.023 C 
ENDBRANCH   1  19
TORSDOF 5
