REMARK  5 active torsions:
REMARK  status: ('A' for Active; 'I' for Inactive)
REMARK    1  A    between atoms: N2_4  and  C3_5 
REMARK    2  A    between atoms: C4_6  and  C5_7 
REMARK       I    between atoms: C5_7  and  N3_9 
REMARK    3  A    between atoms: N3_9  and  C6_10 
REMARK    4  A    between atoms: N4_19  and  C13_20 
REMARK    5  A    between atoms: C13_20  and  C14_21 
ROOT
HETATM    1  C1  UNL     1       3.884  -2.707   0.255  1.00  0.00     0.074 C 
HETATM    2  C2  UNL     1       2.909  -1.611   0.295  1.00  0.00     0.145 A 
HETATM    3  N1  UNL     1       1.569  -1.785   0.171  1.00  0.00    -0.148 NA
HETATM    4  N2  UNL     1       0.982  -0.604   0.250  1.00  0.00    -0.177 N 
HETATM    5  C12 UNL     1       1.945   0.337   0.426  1.00  0.00     0.352 A 
HETATM    6  O2  UNL     1       1.722   1.571   0.539  1.00  0.00    -0.244 OA
HETATM    7  N4  UNL     1       3.135  -0.292   0.452  1.00  0.00    -0.265 N 
ENDROOT
BRANCH   4   8
HETATM    8  C3  UNL     1      -0.405  -0.310   0.173  1.00  0.00     0.110 C 
HETATM    9  C4  UNL     1      -1.247  -1.298   0.002  1.00  0.00     0.083 C 
BRANCH   9  10
HETATM   10  C5  UNL     1      -2.694  -1.030  -0.083  1.00  0.00     0.281 C 
HETATM   11  O1  UNL     1      -3.504  -1.975  -0.247  1.00  0.00    -0.265 OA
HETATM   12  N3  UNL     1      -3.216   0.283   0.015  1.00  0.00    -0.207 NA
BRANCH  12  13
HETATM   13  C6  UNL     1      -4.607   0.569  -0.064  1.00  0.00     0.095 A 
HETATM   14  C7  UNL     1      -5.561  -0.409  -0.242  1.00  0.00     0.020 A 
HETATM   15  C8  UNL     1      -6.913  -0.098  -0.315  1.00  0.00     0.002 A 
HETATM   16  C9  UNL     1      -7.354   1.203  -0.212  1.00  0.00     0.001 A 
HETATM   17  C10 UNL     1      -6.405   2.187  -0.034  1.00  0.00     0.013 A 
HETATM   18  C11 UNL     1      -5.048   1.871   0.039  1.00  0.00     0.075 A 
HETATM   19 CL1  UNL     1      -3.843   3.124   0.266  1.00  0.00    -0.081 Cl
ENDBRANCH  12  13
ENDBRANCH   9  10
ENDBRANCH   4   8
BRANCH   7  20
HETATM   20  C13 UNL     1       4.435   0.346   0.622  1.00  0.00     0.141 C 
BRANCH  20  21
HETATM   21  C14 UNL     1       5.020   0.727  -0.714  1.00  0.00     0.138 C 
HETATM   22  C15 UNL     1       5.209  -0.488  -1.597  1.00  0.00     0.034 C 
HETATM   23  C16 UNL     1       6.640  -0.887  -1.296  1.00  0.00     0.035 C 
HETATM   24  C17 UNL     1       7.033   0.068  -0.170  1.00  0.00     0.142 C 
HETATM   25  O3  UNL     1       6.312   1.205  -0.503  1.00  0.00    -0.355 OA
ENDBRANCH  20  21
ENDBRANCH   7  20
TORSDOF 5
