REMARK  4 active torsions:
REMARK  status: ('A' for Active; 'I' for Inactive)
REMARK    1  A    between atoms: N1_2  and  C3_4 
REMARK    2  A    between atoms: N3_13  and  C10_14 
REMARK    3  A    between atoms: C15_19  and  S1_20 
REMARK    4  A    between atoms: S1_20  and  C16_23 
ROOT
HETATM    1  C10 UNL     1      -0.787  -0.984  -1.095  1.00  0.00     0.092 A 
HETATM    2  C11 UNL     1      -1.223  -1.648  -2.245  1.00  0.00     0.019 A 
HETATM    3  C12 UNL     1      -0.372  -1.901  -3.300  1.00  0.00     0.002 A 
HETATM    4  C13 UNL     1       0.928  -1.481  -3.193  1.00  0.00     0.001 A 
HETATM    5  C14 UNL     1       1.339  -0.836  -2.067  1.00  0.00     0.013 A 
HETATM    6  C15 UNL     1       0.506  -0.565  -0.986  1.00  0.00     0.105 A 
ENDROOT
BRANCH   1   7
HETATM    7  N3  UNL     1      -1.719  -0.771  -0.051  1.00  0.00    -0.140 N 
HETATM    8  C3  UNL     1      -2.017  -1.685   0.901  1.00  0.00     0.712 A 
HETATM    9  N2  UNL     1      -2.946  -1.084   1.680  1.00  0.00    -0.061 NA
HETATM   10  C4  UNL     1      -3.213   0.152   1.230  1.00  0.00     0.116 A 
HETATM   11  C5  UNL     1      -4.058   1.156   1.639  1.00  0.00     0.022 A 
HETATM   12  C9  UNL     1      -2.429   0.360   0.118  1.00  0.00     0.100 A 
HETATM   13  C6  UNL     1      -4.152   2.366   0.979  1.00  0.00     0.013 A 
HETATM   14  C7  UNL     1      -3.364   2.578  -0.141  1.00  0.00     0.059 A 
HETATM   15 CL1  UNL     1      -3.478   4.124  -0.995  1.00  0.00    -0.082 Cl
HETATM   16  C8  UNL     1      -2.513   1.577  -0.560  1.00  0.00     0.031 A 
BRANCH   8  17
HETATM   17  N1  UNL     1      -1.509  -3.003   1.069  1.00  0.00    -0.180 N 
HETATM   18  C1  UNL     1      -2.114  -4.139   0.352  1.00  0.00     0.144 C 
HETATM   19  C2  UNL     1      -0.402  -3.330   1.930  1.00  0.00     0.144 C 
ENDBRANCH   8  17
ENDBRANCH   1   7
BRANCH   6  20
HETATM   20  S1  UNL     1       1.166   0.287   0.388  1.00  0.00     0.211 S 
HETATM   21  O1  UNL     1       0.503   1.653   0.532  1.00  0.00    -0.217 OA
HETATM   22  O2  UNL     1       1.015  -0.464   1.666  1.00  0.00    -0.217 OA
BRANCH  20  23
HETATM   23  C16 UNL     1       2.894   0.587   0.138  1.00  0.00     0.089 A 
HETATM   24  C17 UNL     1       3.746  -0.415   0.595  1.00  0.00     0.011 A 
HETATM   25  C18 UNL     1       5.106  -0.257   0.435  1.00  0.00     0.002 A 
HETATM   26  C19 UNL     1       5.624   0.864  -0.164  1.00  0.00     0.011 A 
HETATM   27  C20 UNL     1       4.751   1.838  -0.606  1.00  0.00     0.058 A 
HETATM   28 CL2  UNL     1       5.336   3.311  -1.387  1.00  0.00    -0.082 Cl
HETATM   29  C21 UNL     1       3.381   1.711  -0.460  1.00  0.00     0.023 A 
ENDBRANCH  20  23
ENDBRANCH   6  20
TORSDOF 4
