REMARK  13 active torsions:
REMARK  status: ('A' for Active; 'I' for Inactive)
REMARK    1  A    between atoms: C2_2  and  C3_3 
REMARK    2  A    between atoms: C3_3  and  O1_4 
REMARK    3  A    between atoms: O1_4  and  C4_5 
REMARK    4  A    between atoms: C6_7  and  N1_8 
REMARK    5  A    between atoms: N1_8  and  C7_9 
REMARK    6  A    between atoms: C7_9  and  C8_10 
REMARK    7  A    between atoms: C15_17  and  C26_31 
REMARK    8  A    between atoms: C16_18  and  N2_19 
REMARK       I    between atoms: N2_19  and  C17_20 
REMARK    9  A    between atoms: C17_20  and  C18_22 
REMARK   10  A    between atoms: C18_22  and  C19_24 
REMARK   11  A    between atoms: C19_24  and  C20_25 
REMARK   12  A    between atoms: C26_31  and  C29_34 
REMARK   13  A    between atoms: C29_34  and  O4_36 
ROOT
HETATM    1  C4  UNL     1      -0.280   0.797  -0.688  1.00  0.00     0.113 A 
HETATM    2  C5  UNL     1      -1.637   0.558  -0.636  1.00  0.00     0.044 A 
HETATM    3  C6  UNL     1      -2.245  -0.024   0.459  1.00  0.00     0.078 A 
HETATM    4  C14 UNL     1      -1.431  -0.363   1.516  1.00  0.00     0.017 A 
HETATM    5  C15 UNL     1      -0.050  -0.147   1.525  1.00  0.00     0.007 A 
HETATM    6  C16 UNL     1       0.501   0.435   0.410  1.00  0.00     0.103 A 
ENDROOT
BRANCH   6   7
HETATM    7  N2  UNL     1       1.882   0.676   0.337  1.00  0.00    -0.206 NA
HETATM    8  C17 UNL     1       2.560   1.858   0.679  1.00  0.00     0.289 C 
HETATM    9  O2  UNL     1       1.825   2.820   1.105  1.00  0.00    -0.264 OA
BRANCH   8  10
HETATM   10  C18 UNL     1       3.984   2.122   0.611  1.00  0.00     0.110 C 
HETATM   11  N3  UNL     1       4.348   3.377   1.111  1.00  0.00    -0.100 NA
BRANCH  10  12
HETATM   12  C19 UNL     1       4.944   1.045   0.489  1.00  0.00     0.072 C 
BRANCH  12  13
HETATM   13  C20 UNL     1       4.758   0.249  -0.724  1.00  0.00    -0.017 A 
HETATM   14  C21 UNL     1       5.416   0.640  -1.895  1.00  0.00    -0.004 A 
HETATM   15  C22 UNL     1       5.213  -0.148  -3.006  1.00  0.00    -0.000 A 
HETATM   16  C23 UNL     1       4.416  -1.267  -3.014  1.00  0.00    -0.000 A 
HETATM   17  C24 UNL     1       3.777  -1.624  -1.826  1.00  0.00    -0.000 A 
HETATM   18  C25 UNL     1       3.953  -0.864  -0.692  1.00  0.00    -0.004 A 
ENDBRANCH  12  13
ENDBRANCH  10  12
ENDBRANCH   8  10
ENDBRANCH   6   7
BRANCH   1  19
HETATM   19  O1  UNL     1       0.366   1.378  -1.766  1.00  0.00    -0.329 OA
BRANCH  19  20
HETATM   20  C3  UNL     1      -0.345   1.773  -2.913  1.00  0.00     0.149 C 
BRANCH  20  21
HETATM   21  C2  UNL     1      -1.033   0.580  -3.532  1.00  0.00     0.033 C 
HETATM   22  C1  UNL     1      -0.033  -0.476  -3.934  1.00  0.00     0.003 C 
ENDBRANCH  20  21
ENDBRANCH  19  20
ENDBRANCH   1  19
BRANCH   5  23
HETATM   23  C26 UNL     1       0.782  -0.538   2.687  1.00  0.00     0.098 C 
HETATM   24  C27 UNL     1       1.438   0.609   3.391  1.00  0.00     0.014 C 
HETATM   25  C28 UNL     1      -0.152  -1.280   3.664  1.00  0.00     0.014 C 
BRANCH  23  26
HETATM   26  C29 UNL     1       1.793  -1.525   2.241  1.00  0.00     0.275 C 
HETATM   27  O3  UNL     1       3.010  -1.282   2.376  1.00  0.00    -0.264 OA
BRANCH  26  28
HETATM   28  O4  UNL     1       1.352  -2.704   1.678  1.00  0.00    -0.299 OA
HETATM   29  C30 UNL     1       2.246  -3.689   1.230  1.00  0.00     0.184 C 
ENDBRANCH  26  28
ENDBRANCH  23  26
ENDBRANCH   5  23
BRANCH   3  30
HETATM   30  N1  UNL     1      -3.659  -0.271   0.508  1.00  0.00    -0.266 NA
BRANCH  30  31
HETATM   31  C7  UNL     1      -4.426   0.123  -0.656  1.00  0.00     0.152 C 
BRANCH  31  32
HETATM   32  C8  UNL     1      -5.869  -0.180  -0.490  1.00  0.00     0.002 A 
HETATM   33  C9  UNL     1      -6.321  -0.773   0.682  1.00  0.00    -0.002 A 
HETATM   34  C10 UNL     1      -7.652  -1.061   0.854  1.00  0.00    -0.000 A 
HETATM   35  C11 UNL     1      -8.583  -0.767  -0.141  1.00  0.00    -0.000 A 
HETATM   36  C12 UNL     1      -8.087  -0.175  -1.295  1.00  0.00    -0.000 A 
HETATM   37  C13 UNL     1      -6.760   0.117  -1.477  1.00  0.00    -0.002 A 
ENDBRANCH  31  32
ENDBRANCH  30  31
ENDBRANCH   3  30
TORSDOF 13
