REMARK  6 active torsions:
REMARK  status: ('A' for Active; 'I' for Inactive)
REMARK    1  A    between atoms: O1_2  and  C2_3 
REMARK    2  A    between atoms: C6_7  and  C8_9 
REMARK    3  A    between atoms: C10_12  and  C18_21 
REMARK    4  A    between atoms: C14_17  and  C15_18 
REMARK    5  A    between atoms: C19_22  and  C23_31 
REMARK    6  A    between atoms: N4_24  and  C20_26 
ROOT
HETATM    1  C8  UNL     1       2.012  -0.103  -0.881  1.00  0.00     0.095 A 
HETATM    2  N1  UNL     1       0.825   0.194  -0.323  1.00  0.00    -0.227 NA
HETATM    3  C9  UNL     1       0.201   1.145  -1.046  1.00  0.00     0.149 A 
HETATM    4  C10 UNL     1      -1.026   1.750  -0.850  1.00  0.00     0.056 A 
HETATM    5  C11 UNL     1      -1.419   2.707  -1.764  1.00  0.00     0.006 A 
HETATM    6  C12 UNL     1      -0.618   3.060  -2.844  1.00  0.00     0.019 A 
HETATM    7  C13 UNL     1       0.599   2.406  -2.969  1.00  0.00     0.081 A 
HETATM    8  N2  UNL     1       1.003   1.465  -2.088  1.00  0.00    -0.293 N 
HETATM    9  C14 UNL     1       2.110   0.706  -1.991  1.00  0.00     0.060 A 
ENDROOT
BRANCH   4  10
HETATM   10  C18 UNL     1      -1.849   1.364   0.291  1.00  0.00     0.125 A 
HETATM   11  C19 UNL     1      -2.376   0.105   0.501  1.00  0.00     0.122 A 
HETATM   12  N3  UNL     1      -3.062   0.173   1.654  1.00  0.00    -0.145 NA
HETATM   13  N4  UNL     1      -3.000   1.393   2.182  1.00  0.00    -0.122 N 
HETATM   14  N5  UNL     1      -2.258   2.098   1.338  1.00  0.00    -0.144 NA
BRANCH  11  15
HETATM   15  C23 UNL     1      -2.219  -1.060  -0.356  1.00  0.00     0.022 A 
HETATM   16  C24 UNL     1      -1.602  -2.179   0.148  1.00  0.00     0.002 A 
HETATM   17  C25 UNL     1      -1.425  -3.305  -0.607  1.00  0.00     0.001 A 
HETATM   18  C26 UNL     1      -1.859  -3.370  -1.917  1.00  0.00     0.011 A 
HETATM   19  C27 UNL     1      -2.478  -2.246  -2.421  1.00  0.00     0.058 A 
HETATM   20 CL1  UNL     1      -3.048  -2.259  -4.059  1.00  0.00    -0.082 Cl
HETATM   21  C28 UNL     1      -2.662  -1.105  -1.667  1.00  0.00     0.013 A 
ENDBRANCH  11  15
BRANCH  13  22
HETATM   22  C20 UNL     1      -3.606   1.824   3.392  1.00  0.00     0.228 A 
HETATM   23  C21 UNL     1      -2.973   2.318   4.507  1.00  0.00     0.071 A 
HETATM   24  C22 UNL     1      -3.975   2.602   5.426  1.00  0.00     0.132 A 
HETATM   25  N6  UNL     1      -5.119   2.276   4.838  1.00  0.00    -0.123 NA
HETATM   26  O2  UNL     1      -4.888   1.822   3.647  1.00  0.00    -0.190 OA
ENDBRANCH  13  22
ENDBRANCH   4  10
BRANCH   1  27
HETATM   27  C6  UNL     1       3.017  -1.089  -0.414  1.00  0.00     0.021 A 
HETATM   28  C5  UNL     1       3.610  -1.937  -1.310  1.00  0.00     0.002 A 
HETATM   29  C4  UNL     1       4.537  -2.851  -0.895  1.00  0.00     0.002 A 
HETATM   30  C3  UNL     1       4.872  -2.907   0.461  1.00  0.00     0.024 A 
HETATM   31  C2  UNL     1       4.286  -2.063   1.371  1.00  0.00     0.094 A 
HETATM   32  C7  UNL     1       3.362  -1.162   0.918  1.00  0.00     0.026 A 
BRANCH  31  33
HETATM   33  O1  UNL     1       4.642  -2.151   2.692  1.00  0.00    -0.328 OA
HETATM   34  C1  UNL     1       5.590  -3.077   3.152  1.00  0.00     0.181 C 
ENDBRANCH  31  33
ENDBRANCH   1  27
BRANCH   9  35
HETATM   35  C15 UNL     1       3.233   0.773  -2.961  1.00  0.00     0.040 C 
HETATM   36  C16 UNL     1       2.994   1.762  -4.051  1.00  0.00     0.006 C 
HETATM   37  C17 UNL     1       4.569   0.923  -2.285  1.00  0.00     0.006 C 
ENDBRANCH   9  35
TORSDOF 6
