REMARK  6 active torsions:
REMARK  status: ('A' for Active; 'I' for Inactive)
REMARK    1  A    between atoms: O1_2  and  C2_3 
REMARK    2  A    between atoms: C5_6  and  N1_9 
REMARK    3  A    between atoms: N2_12  and  C10_13 
REMARK    4  A    between atoms: C11_14  and  C12_15 
REMARK    5  A    between atoms: C12_15  and  C13_16 
REMARK    6  A    between atoms: C16_19  and  C19_22 
ROOT
HETATM    1  C10 UNL     1       1.672   0.943  -0.957  1.00  0.00     0.047 C 
HETATM    2  C11 UNL     1       1.017  -0.067  -1.674  1.00  0.00     0.012 C 
ENDROOT
BRANCH   1   3
HETATM    3  N2  UNL     1       0.890   1.764  -0.075  1.00  0.00    -0.248 NA
HETATM    4  C9  UNL     1       1.720   2.876   0.388  1.00  0.00     0.101 C 
HETATM    5  C8  UNL     1       2.887   2.439   1.191  1.00  0.00     0.119 C 
HETATM    6  N1  UNL     1       3.033   1.012   1.285  1.00  0.00    -0.345 N 
HETATM    7  C27 UNL     1       1.884   0.152   1.431  1.00  0.00     0.119 C 
HETATM    8  C26 UNL     1       0.619   0.920   1.105  1.00  0.00     0.101 C 
BRANCH   6   9
HETATM    9  C5  UNL     1       4.326   0.432   1.233  1.00  0.00     0.056 A 
HETATM   10  C4  UNL     1       4.916   0.165   0.021  1.00  0.00     0.019 A 
HETATM   11  C3  UNL     1       6.190  -0.390  -0.066  1.00  0.00     0.026 A 
HETATM   12  C2  UNL     1       6.895  -0.687   1.097  1.00  0.00     0.094 A 
HETATM   13  C7  UNL     1       6.289  -0.414   2.298  1.00  0.00     0.026 A 
HETATM   14  C6  UNL     1       5.030   0.134   2.375  1.00  0.00     0.019 A 
BRANCH  12  15
HETATM   15  O1  UNL     1       8.164  -1.238   1.077  1.00  0.00    -0.328 OA
HETATM   16  C1  UNL     1       8.799  -1.522  -0.176  1.00  0.00     0.181 C 
ENDBRANCH  12  15
ENDBRANCH   6   9
ENDBRANCH   1   3
BRANCH   2  17
HETATM   17  C12 UNL     1      -0.062  -0.563  -1.902  1.00  0.00     0.001 C 
BRANCH  17  18
HETATM   18  C13 UNL     1      -1.453  -0.459  -1.592  1.00  0.00     0.000 A 
HETATM   19  C14 UNL     1      -2.389  -1.363  -2.136  1.00  0.00     0.000 A 
HETATM   20  C15 UNL     1      -3.730  -1.263  -1.855  1.00  0.00    -0.000 A 
HETATM   21  C16 UNL     1      -4.251  -0.293  -1.039  1.00  0.00    -0.000 A 
HETATM   22  C17 UNL     1      -3.333   0.609  -0.493  1.00  0.00    -0.000 A 
HETATM   23  C18 UNL     1      -1.994   0.507  -0.775  1.00  0.00     0.000 A 
BRANCH  21  24
HETATM   24  C19 UNL     1      -5.671  -0.173  -0.730  1.00  0.00    -0.004 A 
HETATM   25  C20 UNL     1      -6.665  -0.239  -1.680  1.00  0.00    -0.000 A 
HETATM   26  C21 UNL     1      -7.995  -0.122  -1.396  1.00  0.00    -0.000 A 
HETATM   27  C22 UNL     1      -8.342   0.074  -0.066  1.00  0.00    -0.000 A 
HETATM   28  C23 UNL     1      -7.374   0.146   0.914  1.00  0.00    -0.004 A 
HETATM   29  C24 UNL     1      -6.058   0.022   0.574  1.00  0.00    -0.022 A 
HETATM   30  C25 UNL     1      -5.015   0.098   1.622  1.00  0.00     0.031 C 
ENDBRANCH  21  24
ENDBRANCH  17  18
ENDBRANCH   2  17
TORSDOF 6
