REMARK  8 active torsions:
REMARK  status: ('A' for Active; 'I' for Inactive)
REMARK    1  A    between atoms: C2_2  and  C3_3 
REMARK    2  A    between atoms: C3_3  and  C4_4 
REMARK    3  A    between atoms: C4_4  and  C5_5 
REMARK    4  A    between atoms: C6_6  and  C7_7 
REMARK    5  A    between atoms: C7_7  and  C8_8 
REMARK    6  A    between atoms: C8_8  and  C9_9 
REMARK    7  A    between atoms: C10_10  and  C11_11 
REMARK    8  A    between atoms: C11_11  and  C22_23 
ROOT
HETATM    1  C11 UNL     1      -0.985  -0.365  -0.359  1.00  0.00     0.130 C 
HETATM    2  C12 UNL     1      -1.496   0.731   0.642  1.00  0.00     0.036 C 
HETATM    3  C13 UNL     1      -2.882   0.479   1.085  1.00  0.00     0.003 C 
HETATM    4  C14 UNL     1      -3.442   1.760   1.710  1.00  0.00     0.000 C 
HETATM    5  C15 UNL     1      -2.276   2.535   2.299  1.00  0.00     0.000 C 
HETATM    6  C16 UNL     1      -1.756   3.568   1.294  1.00  0.00     0.000 C 
HETATM    7  C17 UNL     1      -2.927   4.347   0.771  1.00  0.00     0.000 C 
HETATM    8  C18 UNL     1      -3.611   3.609  -0.339  1.00  0.00     0.000 C 
HETATM    9  C19 UNL     1      -2.768   3.546  -1.575  1.00  0.00     0.003 C 
HETATM   10  C20 UNL     1      -2.891   2.107  -2.133  1.00  0.00     0.032 C 
HETATM   11  C21 UNL     1      -1.638   1.411  -1.647  1.00  0.00     0.143 C 
HETATM   12  O1  UNL     1      -1.778   0.036  -1.528  1.00  0.00    -0.351 OA
ENDROOT
BRANCH   1  13
HETATM   13  C10 UNL     1       0.375  -0.063  -0.556  1.00  0.00    -0.000 C 
HETATM   14  C9  UNL     1       1.362  -0.688  -1.292  1.00  0.00    -0.028 C 
BRANCH  14  15
HETATM   15  C8  UNL     1       1.867  -2.030  -0.863  1.00  0.00     0.030 C 
BRANCH  15  16
HETATM   16  C7  UNL     1       2.393  -1.712   0.593  1.00  0.00     0.030 C 
BRANCH  16  17
HETATM   17  C6  UNL     1       3.214  -0.549   0.535  1.00  0.00    -0.030 C 
HETATM   18  C5  UNL     1       4.454  -0.425  -0.138  1.00  0.00    -0.031 C 
BRANCH  18  19
HETATM   19  C4  UNL     1       5.582  -1.293   0.395  1.00  0.00     0.026 C 
BRANCH  19  20
HETATM   20  C3  UNL     1       6.797  -0.927  -0.449  1.00  0.00     0.005 C 
BRANCH  20  21
HETATM   21  C2  UNL     1       7.111   0.565  -0.314  1.00  0.00     0.000 C 
HETATM   22  C1  UNL     1       7.355   0.844   1.153  1.00  0.00     0.000 C 
ENDBRANCH  20  21
ENDBRANCH  19  20
ENDBRANCH  18  19
ENDBRANCH  16  17
ENDBRANCH  15  16
ENDBRANCH  14  15
ENDBRANCH   1  13
BRANCH   1  23
HETATM   23  C22 UNL     1      -1.433  -1.675   0.075  1.00  0.00     0.006 A 
HETATM   24  C23 UNL     1      -2.817  -1.955  -0.071  1.00  0.00    -0.002 A 
HETATM   25  C24 UNL     1      -3.321  -3.165   0.340  1.00  0.00    -0.000 A 
HETATM   26  C25 UNL     1      -2.572  -4.148   0.888  1.00  0.00    -0.000 A 
HETATM   27  C26 UNL     1      -1.227  -3.868   1.029  1.00  0.00    -0.000 A 
HETATM   28  C27 UNL     1      -0.688  -2.678   0.639  1.00  0.00    -0.002 A 
ENDBRANCH   1  23
TORSDOF 8
