REMARK  4 active torsions:
REMARK  status: ('A' for Active; 'I' for Inactive)
REMARK    1  A    between atoms: C1_2  and  C2_3 
REMARK    2  A    between atoms: C2_3  and  C3_4 
REMARK       I    between atoms: N2_6  and  C16_22 
REMARK    3  A    between atoms: C6_8  and  C8_12 
REMARK    4  A    between atoms: C8_12  and  C9_13 
ROOT
HETATM    1  C9  UNL     1       1.639  -0.134   0.404  1.00  0.00    -0.018 A 
HETATM    2  C10 UNL     1       1.442   1.245   0.360  1.00  0.00     0.007 A 
HETATM    3  C11 UNL     1       2.491   2.138   0.283  1.00  0.00     0.058 A 
HETATM    4 CL1  UNL     1       2.266   3.866   0.227  1.00  0.00    -0.082 Cl
HETATM    5  C12 UNL     1       3.794   1.663   0.248  1.00  0.00     0.022 A 
HETATM    6  C13 UNL     1       4.021   0.297   0.290  1.00  0.00     0.069 A 
HETATM    7  C14 UNL     1       2.950  -0.565   0.367  1.00  0.00     0.006 A 
HETATM    8  C15 UNL     1       5.383  -0.213   0.253  1.00  0.00     0.101 C 
HETATM    9  N3  UNL     1       6.459  -0.637   0.226  1.00  0.00    -0.191 NA
ENDROOT
BRANCH   1  10
HETATM   10  C8  UNL     1       0.486  -1.070   0.487  1.00  0.00     0.059 C 
BRANCH  10  11
HETATM   11  C6  UNL     1      -0.007  -1.475  -0.883  1.00  0.00     0.151 C 
HETATM   12  C5  UNL     1      -1.173  -2.421  -0.684  1.00  0.00     0.136 C 
HETATM   13  N2  UNL     1      -1.969  -1.887   0.404  1.00  0.00    -0.302 N 
HETATM   14  C4  UNL     1      -2.090  -0.541   0.919  1.00  0.00     0.116 C 
HETATM   15  C16 UNL     1      -2.758  -2.867   1.065  1.00  0.00     0.332 C 
HETATM   16  C3  UNL     1      -2.530   0.440  -0.122  1.00  0.00     0.111 C 
HETATM   17  C7  UNL     1      -1.612   0.463  -1.289  1.00  0.00     0.273 C 
HETATM   18  O1  UNL     1      -0.511  -0.334  -1.555  1.00  0.00    -0.302 OA
HETATM   19  O2  UNL     1      -1.843   1.308  -2.167  1.00  0.00    -0.264 OA
HETATM   20  N4  UNL     1      -3.603  -2.482   2.169  1.00  0.00    -0.040 NA
HETATM   21  O3  UNL     1      -2.747  -4.080   0.717  1.00  0.00    -0.251 OA
BRANCH  16  22
HETATM   22  C2  UNL     1      -2.639   1.805   0.524  1.00  0.00     0.053 C 
BRANCH  22  23
HETATM   23  C1  UNL     1      -3.076   2.874  -0.432  1.00  0.00     0.339 C 
HETATM   24  N1  UNL     1      -4.374   2.606  -1.013  1.00  0.00     0.618 N 
ENDBRANCH  22  23
ENDBRANCH  16  22
ENDBRANCH  10  11
ENDBRANCH   1  10
TORSDOF 4
