REMARK  2 active torsions:
REMARK  status: ('A' for Active; 'I' for Inactive)
REMARK    1  A    between atoms: C11_13  and  C12_14 
REMARK    2  A    between atoms: C16_18  and  C17_19 
ROOT
HETATM    1  C1  UNL     1      -0.307   1.131  -2.718  1.00  0.00     0.033 C 
HETATM    2  C2  UNL     1       0.450   0.565  -1.575  1.00  0.00    -0.004 A 
HETATM    3  C3  UNL     1       1.843   0.689  -1.608  1.00  0.00    -0.002 A 
HETATM    4  C4  UNL     1       2.573   0.172  -0.558  1.00  0.00     0.015 A 
HETATM    5  C5  UNL     1       3.965   0.269  -0.542  1.00  0.00     0.005 A 
HETATM    6  C6  UNL     1       4.639   0.940  -1.681  1.00  0.00     0.033 C 
HETATM    7  C7  UNL     1       4.682  -0.246   0.503  1.00  0.00     0.127 A 
HETATM    8  O1  UNL     1       6.065  -0.161   0.539  1.00  0.00    -0.191 OA
HETATM    9  C8  UNL     1       3.988  -0.857   1.529  1.00  0.00     0.029 A 
HETATM   10  C9  UNL     1       2.619  -0.958   1.524  1.00  0.00     0.021 A 
HETATM   11  C10 UNL     1       1.885  -0.436   0.464  1.00  0.00     0.081 A 
HETATM   12  N1  UNL     1       0.530  -0.544   0.474  1.00  0.00    -0.246 NA
HETATM   13  C11 UNL     1      -0.194  -0.050  -0.534  1.00  0.00     0.077 A 
ENDROOT
BRANCH  13  14
HETATM   14  C12 UNL     1      -1.653  -0.163  -0.529  1.00  0.00     0.018 A 
HETATM   15  C13 UNL     1      -2.327  -0.558  -1.681  1.00  0.00     0.002 A 
HETATM   16  C14 UNL     1      -3.697  -0.666  -1.681  1.00  0.00     0.000 A 
HETATM   17  C15 UNL     1      -4.434  -0.389  -0.553  1.00  0.00     0.006 A 
HETATM   18  C16 UNL     1      -3.777   0.010   0.617  1.00  0.00     0.065 A 
HETATM   19  C18 UNL     1      -2.404   0.107   0.581  1.00  0.00     0.008 A 
BRANCH  18  20
HETATM   20  C17 UNL     1      -4.554   0.302   1.805  1.00  0.00     0.211 C 
HETATM   21  O2  UNL     1      -5.920   0.186   1.775  1.00  0.00    -0.644 OA
HETATM   22  O3  UNL     1      -3.972   0.657   2.846  1.00  0.00    -0.644 OA
ENDBRANCH  18  20
ENDBRANCH  13  14
TORSDOF 2
