REMARK  7 active torsions:
REMARK  status: ('A' for Active; 'I' for Inactive)
REMARK    1  A    between atoms: O1_2  and  C2_3 
REMARK    2  A    between atoms: C7_8  and  C8_9 
REMARK    3  A    between atoms: N1_10  and  N2_11 
REMARK    4  A    between atoms: N2_11  and  C9_12 
REMARK    5  A    between atoms: C9_12  and  N3_14 
REMARK    6  A    between atoms: N3_14  and  C10_15 
REMARK    7  A    between atoms: C10_15  and  C11_16 
ROOT
HETATM    1  C8  UNL     1      -1.766   1.637   0.036  1.00  0.00     0.124 C 
HETATM    2  N1  UNL     1      -0.609   1.772  -0.490  1.00  0.00    -0.144 NA
ENDROOT
BRANCH   2   3
HETATM    3  N2  UNL     1      -0.052   0.707  -1.188  1.00  0.00    -0.117 NA
BRANCH   3   4
HETATM    4  C9  UNL     1       1.046  -0.035  -0.680  1.00  0.00     0.236 C 
HETATM    5  S1  UNL     1       1.638  -1.279  -1.575  1.00  0.00    -0.035 SA
BRANCH   4   6
HETATM    6  N3  UNL     1       1.567   0.339   0.570  1.00  0.00    -0.235 NA
BRANCH   6   7
HETATM    7  C10 UNL     1       2.667  -0.285   1.245  1.00  0.00     0.179 C 
BRANCH   7   8
HETATM    8  C11 UNL     1       3.908  -0.215   0.440  1.00  0.00     0.102 A 
HETATM    9  C12 UNL     1       3.980   0.383  -0.800  1.00  0.00     0.024 A 
HETATM   10  C13 UNL     1       5.298   0.243  -1.224  1.00  0.00     0.029 A 
HETATM   11  C14 UNL     1       5.944  -0.439  -0.199  1.00  0.00     0.122 A 
HETATM   12  O2  UNL     1       5.081  -0.692   0.771  1.00  0.00    -0.307 OA
ENDBRANCH   7   8
ENDBRANCH   6   7
ENDBRANCH   4   6
ENDBRANCH   3   4
ENDBRANCH   2   3
BRANCH   1  13
HETATM   13  C7  UNL     1      -2.464   0.369  -0.115  1.00  0.00     0.043 A 
HETATM   14  C2  UNL     1      -3.724   0.284   0.482  1.00  0.00     0.096 A 
HETATM   15  C3  UNL     1      -4.389  -0.898   0.349  1.00  0.00     0.024 A 
HETATM   16  C4  UNL     1      -3.837  -1.953  -0.343  1.00  0.00     0.002 A 
HETATM   17  C5  UNL     1      -2.594  -1.859  -0.927  1.00  0.00     0.000 A 
HETATM   18  C6  UNL     1      -1.914  -0.672  -0.800  1.00  0.00     0.004 A 
BRANCH  14  19
HETATM   19  O1  UNL     1      -4.249   1.374   1.174  1.00  0.00    -0.328 OA
HETATM   20  C1  UNL     1      -5.530   1.220   1.754  1.00  0.00     0.181 C 
ENDBRANCH  14  19
ENDBRANCH   1  13
TORSDOF 7
