REMARK  4 active torsions:
REMARK  status: ('A' for Active; 'I' for Inactive)
REMARK    1  A    between atoms: C8_10  and  C10_12 
REMARK    2  A    between atoms: C11_14  and  S1_15 
REMARK    3  A    between atoms: S1_15  and  C12_16 
REMARK    4  A    between atoms: C12_16  and  C13_17 
ROOT
HETATM    1  F1  UNL     1      -4.537  -0.747   0.593  1.00  0.00    -0.197 F 
HETATM    2  C1  UNL     1      -3.491  -0.693  -0.288  1.00  0.00     0.294 A 
HETATM    3  O1  UNL     1      -3.873  -1.113  -1.577  1.00  0.00    -0.181 OA
HETATM    4  C2  UNL     1      -2.899   0.672  -0.397  1.00  0.00     0.040 A 
HETATM    5  C3  UNL     1      -3.447   1.891  -0.725  1.00  0.00     0.001 A 
HETATM    6  C4  UNL     1      -2.643   3.001  -0.743  1.00  0.00    -0.000 A 
HETATM    7  C5  UNL     1      -1.296   2.961  -0.447  1.00  0.00    -0.000 A 
HETATM    8  C6  UNL     1      -0.793   1.715  -0.124  1.00  0.00    -0.000 A 
HETATM    9  C7  UNL     1      -1.565   0.575  -0.093  1.00  0.00     0.004 A 
HETATM   10  C8  UNL     1      -1.247  -0.813   0.215  1.00  0.00     0.037 A 
HETATM   11  C9  UNL     1      -2.343  -1.539   0.105  1.00  0.00     0.044 A 
ENDROOT
BRANCH  10  12
HETATM   12  C10 UNL     1       0.102  -1.272   0.585  1.00  0.00     0.166 A 
HETATM   13  N1  UNL     1       1.127  -0.409   0.655  1.00  0.00    -0.202 NA
HETATM   14  C11 UNL     1       2.368  -0.803   0.990  1.00  0.00     0.193 A 
HETATM   15  N2  UNL     1       2.608  -2.093   1.266  1.00  0.00    -0.199 NA
HETATM   16  C15 UNL     1       1.603  -2.975   1.203  1.00  0.00     0.202 A 
HETATM   17  N3  UNL     1       0.363  -2.562   0.865  1.00  0.00    -0.205 NA
BRANCH  14  18
HETATM   18  S1  UNL     1       3.734   0.361   1.081  1.00  0.00    -0.071 SA
BRANCH  18  19
HETATM   19  C12 UNL     1       4.490   0.423  -0.567  1.00  0.00     0.091 C 
BRANCH  19  20
HETATM   20  C13 UNL     1       5.630   1.344  -0.642  1.00  0.00    -0.014 C 
HETATM   21  C14 UNL     1       6.109   2.077   0.331  1.00  0.00    -0.004 C 
ENDBRANCH  19  20
ENDBRANCH  18  19
ENDBRANCH  14  18
ENDBRANCH  10  12
TORSDOF 4
