REMARK  4 active torsions:
REMARK  status: ('A' for Active; 'I' for Inactive)
REMARK    1  A    between atoms: N1_2  and  C3_4 
REMARK    2  A    between atoms: C3_4  and  C4_5 
REMARK    3  A    between atoms: C4_5  and  C5_6 
REMARK    4  A    between atoms: C6_7  and  C7_8 
ROOT
HETATM    1  C7  UNL     1      -1.105  -0.758  -0.622  1.00  0.00     0.052 A 
HETATM    2  C8  UNL     1      -1.656   0.153   0.239  1.00  0.00     0.197 A 
HETATM    3  O1  UNL     1      -0.926   1.230   0.673  1.00  0.00    -0.184 OA
HETATM    4  C9  UNL     1      -2.977   0.009   0.697  1.00  0.00     0.344 A 
HETATM    5  O2  UNL     1      -3.399   0.910   1.496  1.00  0.00    -0.255 OA
HETATM    6  O3  UNL     1      -3.679  -0.999   0.300  1.00  0.00    -0.167 OA
HETATM    7  N2  UNL     1      -3.206  -1.906  -0.525  1.00  0.00    -0.121 NA
HETATM    8  C10 UNL     1      -1.949  -1.820  -0.997  1.00  0.00     0.130 A 
ENDROOT
BRANCH   1   9
HETATM    9  C6  UNL     1       0.212  -0.700  -1.131  1.00  0.00    -0.001 C 
HETATM   10  C5  UNL     1       1.229   0.013  -1.036  1.00  0.00    -0.024 C 
BRANCH  10  11
HETATM   11  C4  UNL     1       1.584   1.221  -0.301  1.00  0.00     0.061 C 
BRANCH  11  12
HETATM   12  C3  UNL     1       2.788   0.841   0.582  1.00  0.00     0.255 C 
BRANCH  12  13
HETATM   13  N1  UNL     1       3.838   0.420  -0.350  1.00  0.00     0.142 N 
HETATM   14  C1  UNL     1       4.302   1.580  -1.099  1.00  0.00     0.285 C 
HETATM   15  C2  UNL     1       4.945  -0.194   0.349  1.00  0.00     0.285 C 
ENDBRANCH  12  13
ENDBRANCH  11  12
ENDBRANCH  10  11
ENDBRANCH   1   9
TORSDOF 4
