REMARK  5 active torsions:
REMARK  status: ('A' for Active; 'I' for Inactive)
REMARK    1  A    between atoms: C2_2  and  C3_3 
REMARK    2  A    between atoms: C3_3  and  C4_4 
REMARK    3  A    between atoms: C4_4  and  C5_5 
REMARK    4  A    between atoms: C5_5  and  N1_6 
REMARK    5  A    between atoms: N1_6  and  C6_7 
ROOT
HETATM    1  C6  UNL     1       0.775   0.005  -0.278  1.00  0.00     0.173 A 
HETATM    2  N2  UNL     1      -0.237  -0.893  -0.158  1.00  0.00    -0.206 NA
HETATM    3  C7  UNL     1      -1.525  -0.505  -0.143  1.00  0.00     0.184 A 
HETATM    4  N3  UNL     1      -2.700  -1.168  -0.038  1.00  0.00    -0.262 N 
HETATM    5  C8  UNL     1      -2.879  -2.605   0.098  1.00  0.00     0.137 C 
HETATM    6  C9  UNL     1      -3.694  -0.259  -0.082  1.00  0.00     0.334 A 
HETATM    7  O1  UNL     1      -4.936  -0.462  -0.016  1.00  0.00    -0.246 OA
HETATM    8  N4  UNL     1      -3.134   0.953  -0.213  1.00  0.00    -0.262 N 
HETATM    9  C10 UNL     1      -3.830   2.242  -0.302  1.00  0.00     0.137 C 
HETATM   10  C11 UNL     1      -1.787   0.856  -0.256  1.00  0.00     0.182 A 
HETATM   11  N5  UNL     1      -0.797   1.761  -0.376  1.00  0.00    -0.227 NA
HETATM   12  C12 UNL     1       0.489   1.348  -0.388  1.00  0.00     0.097 A 
HETATM   13  C13 UNL     1       1.616   2.332  -0.520  1.00  0.00     0.056 C 
ENDROOT
BRANCH   1  14
HETATM   14  N1  UNL     1       2.130  -0.382  -0.296  1.00  0.00    -0.252 NA
BRANCH  14  15
HETATM   15  C5  UNL     1       2.572  -1.755  -0.189  1.00  0.00     0.127 C 
BRANCH  15  16
HETATM   16  C4  UNL     1       4.055  -1.891  -0.234  1.00  0.00     0.026 C 
BRANCH  16  17
HETATM   17  C3  UNL     1       4.699  -1.125   0.908  1.00  0.00     0.002 C 
BRANCH  17  18
HETATM   18  C2  UNL     1       4.297   0.346   0.741  1.00  0.00     0.000 C 
HETATM   19  C1  UNL     1       4.887   1.200   1.831  1.00  0.00     0.000 C 
ENDBRANCH  17  18
ENDBRANCH  16  17
ENDBRANCH  15  16
ENDBRANCH  14  15
ENDBRANCH   1  14
TORSDOF 5
