REMARK  6 active torsions:
REMARK  status: ('A' for Active; 'I' for Inactive)
REMARK    1  A    between atoms: C1_1  and  C2_2 
REMARK    2  A    between atoms: C1_1  and  C18_21 
REMARK    3  A    between atoms: C2_2  and  C3_3 
REMARK    4  A    between atoms: C6_6  and  C7_7 
REMARK    5  A    between atoms: C8_8  and  C9_9 
REMARK       I    between atoms: C9_9  and  N1_11 
REMARK    6  A    between atoms: N1_11  and  C10_12 
ROOT
HETATM    1  C3  UNL     1       3.125  -0.640  -1.737  1.00  0.00    -0.022 A 
HETATM    2  C4  UNL     1       2.330   0.334  -2.308  1.00  0.00    -0.004 A 
HETATM    3  C5  UNL     1       1.014   0.530  -1.927  1.00  0.00    -0.000 A 
HETATM    4  C6  UNL     1       0.454  -0.266  -0.940  1.00  0.00     0.000 A 
HETATM    5  C16 UNL     1       1.234  -1.239  -0.364  1.00  0.00    -0.000 A 
HETATM    6  C17 UNL     1       2.562  -1.429  -0.756  1.00  0.00    -0.004 A 
ENDROOT
BRANCH   4   7
HETATM    7  C7  UNL     1      -0.925  -0.108  -0.496  1.00  0.00     0.005 C 
HETATM    8  C8  UNL     1      -1.706   0.829  -1.038  1.00  0.00     0.062 C 
BRANCH   8   9
HETATM    9  C9  UNL     1      -3.090   1.006  -0.610  1.00  0.00     0.279 C 
HETATM   10  O1  UNL     1      -3.792   1.899  -1.145  1.00  0.00    -0.265 OA
HETATM   11  N1  UNL     1      -3.672   0.211   0.385  1.00  0.00    -0.208 NA
BRANCH  11  12
HETATM   12  C10 UNL     1      -5.026   0.366   0.821  1.00  0.00     0.085 A 
HETATM   13  C11 UNL     1      -5.877   1.316   0.296  1.00  0.00     0.020 A 
HETATM   14  C12 UNL     1      -7.181   1.449   0.732  1.00  0.00     0.013 A 
HETATM   15  C13 UNL     1      -7.688   0.628   1.719  1.00  0.00     0.058 A 
HETATM   16 CL1  UNL     1      -9.348   0.790   2.280  1.00  0.00    -0.082 Cl
HETATM   17  C14 UNL     1      -6.836  -0.323   2.243  1.00  0.00     0.013 A 
HETATM   18  C15 UNL     1      -5.525  -0.459   1.808  1.00  0.00     0.020 A 
ENDBRANCH  11  12
ENDBRANCH   8   9
ENDBRANCH   4   7
BRANCH   1  19
HETATM   19  C2  UNL     1       4.535  -0.824  -2.170  1.00  0.00     0.026 C 
BRANCH  19  20
HETATM   20  C1  UNL     1       5.458   0.037  -1.335  1.00  0.00     0.005 C 
BRANCH  20  21
HETATM   21  C18 UNL     1       5.359  -0.329   0.131  1.00  0.00     0.000 C 
HETATM   22  C19 UNL     1       5.735  -1.770   0.383  1.00  0.00     0.000 C 
HETATM   23  C20 UNL     1       6.753  -1.795   1.502  1.00  0.00     0.000 C 
HETATM   24  C21 UNL     1       8.048  -1.102   1.100  1.00  0.00     0.000 C 
HETATM   25  C22 UNL     1       7.750   0.280   0.554  1.00  0.00     0.000 C 
HETATM   26  C23 UNL     1       6.310   0.609   0.872  1.00  0.00     0.000 C 
ENDBRANCH  20  21
ENDBRANCH  19  20
ENDBRANCH   1  19
TORSDOF 6
