REMARK  6 active torsions:
REMARK  status: ('A' for Active; 'I' for Inactive)
REMARK    1  A    between atoms: C4_5  and  C5_6 
REMARK    2  A    between atoms: C5_6  and  N1_7 
REMARK       I    between atoms: N1_7  and  C6_8 
REMARK    3  A    between atoms: C6_8  and  C7_10 
REMARK    4  A    between atoms: C10_13  and  N2_14 
REMARK    5  A    between atoms: N2_14  and  C11_15 
REMARK    6  A    between atoms: C11_15  and  C12_16 
ROOT
HETATM    1  C7  UNL     1      -0.119   0.219   1.269  1.00  0.00     0.139 A 
HETATM    2  C8  UNL     1       0.441  -1.002   1.586  1.00  0.00     0.026 A 
HETATM    3  C9  UNL     1       1.791  -1.271   1.347  1.00  0.00     0.022 A 
HETATM    4  C10 UNL     1       2.614  -0.317   0.784  1.00  0.00     0.095 A 
HETATM    5  C15 UNL     1       2.007   0.896   0.482  1.00  0.00     0.118 A 
HETATM    6  N3  UNL     1       0.700   1.133   0.721  1.00  0.00    -0.238 NA
ENDROOT
BRANCH   1   7
HETATM    7  C6  UNL     1      -1.525   0.516   1.508  1.00  0.00     0.293 C 
HETATM    8  N1  UNL     1      -2.426  -0.415   2.077  1.00  0.00    -0.228 NA
HETATM    9  O1  UNL     1      -1.958   1.651   1.193  1.00  0.00    -0.264 OA
BRANCH   8  10
HETATM   10  C5  UNL     1      -3.830  -0.105   2.311  1.00  0.00     0.155 C 
BRANCH  10  11
HETATM   11  C4  UNL     1      -4.552  -0.155   1.032  1.00  0.00     0.002 A 
HETATM   12  C3  UNL     1      -5.115  -1.343   0.629  1.00  0.00    -0.002 A 
HETATM   13  C2  UNL     1      -5.788  -1.389  -0.562  1.00  0.00     0.011 A 
HETATM   14  C1  UNL     1      -5.919  -0.281  -1.370  1.00  0.00     0.058 A 
HETATM   15 CL1  UNL     1      -6.776  -0.314  -2.899  1.00  0.00    -0.082 Cl
HETATM   16  C17 UNL     1      -5.346   0.897  -0.946  1.00  0.00     0.011 A 
HETATM   17  C16 UNL     1      -4.665   0.968   0.247  1.00  0.00    -0.002 A 
ENDBRANCH  10  11
ENDBRANCH   8  10
ENDBRANCH   1   7
BRANCH   4  18
HETATM   18  N2  UNL     1       3.991  -0.564   0.528  1.00  0.00    -0.264 NA
BRANCH  18  19
HETATM   19  C11 UNL     1       4.789   0.493  -0.055  1.00  0.00     0.187 C 
BRANCH  19  20
HETATM   20  C12 UNL     1       6.197  -0.072  -0.230  1.00  0.00     0.261 C 
HETATM   21  O2  UNL     1       7.044   0.885  -0.791  1.00  0.00    -0.327 OA
HETATM   22  C13 UNL     1       6.514   0.994  -2.086  1.00  0.00     0.177 C 
HETATM   23  C14 UNL     1       5.860  -0.354  -2.381  1.00  0.00     0.177 C 
HETATM   24  O3  UNL     1       6.071  -1.073  -1.203  1.00  0.00    -0.327 OA
ENDBRANCH  19  20
ENDBRANCH  18  19
ENDBRANCH   4  18
TORSDOF 6
