REMARK  5 active torsions:
REMARK  status: ('A' for Active; 'I' for Inactive)
REMARK       I    between atoms: N1_2  and  C2_3 
REMARK    1  A    between atoms: N1_2  and  C10_14 
REMARK       I    between atoms: C2_3  and  N2_5 
REMARK    2  A    between atoms: N2_5  and  C3_6 
REMARK    3  A    between atoms: C3_6  and  C4_7 
REMARK    4  A    between atoms: C13_17  and  N3_20 
REMARK       I    between atoms: N3_20  and  C16_21 
REMARK       I    between atoms: C16_21  and  N4_23 
REMARK    5  A    between atoms: N4_23  and  C17_24 
ROOT
HETATM    1  C10 UNL     1      -1.182   0.333  -1.657  1.00  0.00     0.086 C 
HETATM    2  C11 UNL     1       0.051  -0.404  -2.127  1.00  0.00     0.024 C 
HETATM    3  C12 UNL     1       0.593  -1.321  -1.060  1.00  0.00     0.026 C 
HETATM    4  C13 UNL     1       0.901  -0.541   0.165  1.00  0.00     0.108 C 
HETATM    5  C14 UNL     1      -0.311   0.118   0.706  1.00  0.00     0.026 C 
HETATM    6  C15 UNL     1      -1.024   0.927  -0.308  1.00  0.00     0.024 C 
ENDROOT
BRANCH   1   7
HETATM    7  N1  UNL     1      -2.393  -0.362  -1.921  1.00  0.00    -0.301 N 
HETATM    8  C1  UNL     1      -2.680  -0.629  -3.343  1.00  0.00     0.130 C 
HETATM    9  C2  UNL     1      -3.322  -0.813  -0.947  1.00  0.00     0.342 C 
HETATM   10  O1  UNL     1      -3.124  -0.608   0.289  1.00  0.00    -0.245 OA
HETATM   11  N2  UNL     1      -4.488  -1.500  -1.315  1.00  0.00    -0.214 NA
BRANCH  11  12
HETATM   12  C3  UNL     1      -5.476  -1.993  -0.400  1.00  0.00     0.157 C 
BRANCH  12  13
HETATM   13  C4  UNL     1      -6.314  -0.885   0.080  1.00  0.00     0.002 A 
HETATM   14  C5  UNL     1      -5.966   0.450   0.014  1.00  0.00    -0.002 A 
HETATM   15  C6  UNL     1      -6.863   1.401   0.503  1.00  0.00     0.011 A 
HETATM   16  C7  UNL     1      -8.094   1.023   1.050  1.00  0.00     0.058 A 
HETATM   17 CL1  UNL     1      -9.129   2.319   1.628  1.00  0.00    -0.082 Cl
HETATM   18  C8  UNL     1      -8.426  -0.294   1.108  1.00  0.00     0.011 A 
HETATM   19  C9  UNL     1      -7.552  -1.251   0.632  1.00  0.00    -0.002 A 
ENDBRANCH  12  13
ENDBRANCH  11  12
ENDBRANCH   1   7
BRANCH   4  20
HETATM   20  N3  UNL     1       1.958   0.403  -0.114  1.00  0.00    -0.219 NA
HETATM   21  C16 UNL     1       3.315   0.124   0.229  1.00  0.00     0.364 C 
HETATM   22  O2  UNL     1       3.546  -1.000   0.795  1.00  0.00    -0.243 OA
HETATM   23  N4  UNL     1       4.412   0.987  -0.008  1.00  0.00    -0.191 NA
BRANCH  23  24
HETATM   24  C17 UNL     1       5.744   0.626   0.367  1.00  0.00     0.087 A 
HETATM   25  C18 UNL     1       6.007  -0.569   0.999  1.00  0.00     0.019 A 
HETATM   26  C19 UNL     1       7.317  -0.915   1.361  1.00  0.00    -0.002 A 
HETATM   27  C20 UNL     1       8.361  -0.079   1.098  1.00  0.00    -0.011 A 
HETATM   28  C21 UNL     1       9.782  -0.418   1.470  1.00  0.00     0.032 C 
HETATM   29  C22 UNL     1       8.101   1.120   0.465  1.00  0.00     0.055 A 
HETATM   30 CL2  UNL     1       9.462   2.191   0.139  1.00  0.00    -0.083 Cl
HETATM   31  C23 UNL     1       6.794   1.473   0.099  1.00  0.00     0.030 A 
ENDBRANCH  23  24
ENDBRANCH   4  20
TORSDOF 5
