REMARK  5 active torsions:
REMARK  status: ('A' for Active; 'I' for Inactive)
REMARK    1  A    between atoms: C4_5  and  C13_21 
REMARK    2  A    between atoms: N2_8  and  C6_9 
REMARK    3  A    between atoms: C9_14  and  C10_15 
REMARK    4  A    between atoms: C10_15  and  C11_16 
REMARK    5  A    between atoms: C16_24  and  O5_25 
ROOT
HETATM    1  C6  UNL     1      -3.133  -1.982  -0.700  1.00  0.00     0.213 C 
HETATM    2  C7  UNL     1      -3.768  -1.396  -1.890  1.00  0.00     0.099 C 
HETATM    3  N3  UNL     1      -4.251  -0.923  -2.828  1.00  0.00    -0.194 NA
ENDROOT
BRANCH   1   4
HETATM    4  N2  UNL     1      -2.111  -1.083  -0.266  1.00  0.00    -0.278 N 
HETATM    5  C5  UNL     1      -0.780  -1.290  -0.820  1.00  0.00     0.259 C 
HETATM    6  C4  UNL     1       0.331  -0.410  -0.370  1.00  0.00     0.052 C 
HETATM    7  O1  UNL     1      -0.540  -2.156  -1.635  1.00  0.00    -0.267 OA
HETATM    8  C3  UNL     1       0.052   0.733   0.246  1.00  0.00     0.005 C 
HETATM    9  C2  UNL     1       0.770   0.637   1.531  1.00  0.00     0.129 C 
HETATM   10  C9  UNL     1      -0.922   1.741  -0.148  1.00  0.00     0.131 C 
HETATM   11  N1  UNL     1      -0.392   0.198   2.416  1.00  0.00    -0.311 N 
HETATM   12  C1  UNL     1      -0.139   0.133   3.806  1.00  0.00     0.129 C 
HETATM   13  C12 UNL     1      -1.718  -0.147   1.981  1.00  0.00     0.278 C 
HETATM   14  C8  UNL     1      -2.428  -0.006   0.707  1.00  0.00     0.266 C 
HETATM   15  O4  UNL     1      -2.427  -0.691   2.900  1.00  0.00    -0.268 OA
HETATM   16  N4  UNL     1      -2.283   1.228   0.013  1.00  0.00    -0.265 NA
BRANCH   6  17
HETATM   17  C13 UNL     1       1.711  -0.737  -0.467  1.00  0.00     0.004 A 
HETATM   18  C14 UNL     1       2.302  -1.151  -1.635  1.00  0.00     0.002 A 
HETATM   19  C15 UNL     1       3.629  -1.488  -1.739  1.00  0.00     0.024 A 
HETATM   20  C16 UNL     1       4.455  -1.424  -0.638  1.00  0.00     0.094 A 
HETATM   21  C18 UNL     1       3.911  -1.019   0.550  1.00  0.00     0.024 A 
HETATM   22  C19 UNL     1       2.570  -0.678   0.650  1.00  0.00     0.002 A 
BRANCH  20  23
HETATM   23  O5  UNL     1       5.823  -1.769  -0.737  1.00  0.00    -0.328 OA
HETATM   24  C17 UNL     1       6.288  -2.180  -2.014  1.00  0.00     0.181 C 
ENDBRANCH  20  23
ENDBRANCH   6  17
BRANCH  10  25
HETATM   25  C10 UNL     1      -0.707   3.088   0.435  1.00  0.00     0.126 C 
BRANCH  25  26
HETATM   26  C11 UNL     1      -1.758   4.026  -0.031  1.00  0.00     0.188 C 
HETATM   27  O2  UNL     1      -2.703   3.537  -0.920  1.00  0.00    -0.647 OA
HETATM   28  O3  UNL     1      -1.782   5.208   0.364  1.00  0.00    -0.647 OA
ENDBRANCH  25  26
ENDBRANCH  10  25
ENDBRANCH   1   4
TORSDOF 5
