REMARK  5 active torsions:
REMARK  status: ('A' for Active; 'I' for Inactive)
REMARK    1  A    between atoms: C7_8  and  N1_9 
REMARK       I    between atoms: N1_9  and  C8_10 
REMARK    2  A    between atoms: C8_10  and  C9_12 
REMARK    3  A    between atoms: N2_14  and  C11_17 
REMARK    4  A    between atoms: C11_17  and  C19_26 
REMARK    5  A    between atoms: N5_20  and  C16_23 
ROOT
HETATM    1  C9  UNL     1       0.860  -0.445  -0.232  1.00  0.00     0.181 A 
HETATM    2  C10 UNL     1      -0.354   0.198  -0.174  1.00  0.00     0.123 A 
HETATM    3  N2  UNL     1      -1.321  -0.704  -0.282  1.00  0.00    -0.230 N 
HETATM    4  N3  UNL     1      -0.717  -1.875  -0.404  1.00  0.00    -0.064 NA
HETATM    5  N4  UNL     1       0.587  -1.752  -0.377  1.00  0.00    -0.124 NA
ENDROOT
BRANCH   3   6
HETATM    6  C11 UNL     1      -2.761  -0.528  -0.274  1.00  0.00     0.111 C 
HETATM    7  C12 UNL     1      -3.156   0.585   0.709  1.00  0.00     0.062 C 
HETATM    8  C13 UNL     1      -4.505   1.110   0.199  1.00  0.00     0.253 C 
HETATM    9  N5  UNL     1      -4.181   2.008  -0.896  1.00  0.00     0.135 N 
HETATM   10  C14 UNL     1      -3.180   1.394  -1.771  1.00  0.00     0.253 C 
HETATM   11  C15 UNL     1      -3.305  -0.111  -1.626  1.00  0.00     0.062 C 
BRANCH   9  12
HETATM   12  C16 UNL     1      -3.655   3.231  -0.277  1.00  0.00     0.219 C 
HETATM   13  C17 UNL     1      -2.376   2.875   0.480  1.00  0.00     0.035 C 
HETATM   14  C18 UNL     1      -4.709   3.656   0.746  1.00  0.00     0.035 C 
ENDBRANCH   9  12
BRANCH   6  15
HETATM   15  C19 UNL     1      -3.410  -1.760   0.240  1.00  0.00    -0.002 A 
HETATM   16  C20 UNL     1      -4.262  -2.508  -0.536  1.00  0.00    -0.003 A 
HETATM   17  C21 UNL     1      -4.836  -3.647  -0.007  1.00  0.00    -0.000 A 
HETATM   18  C22 UNL     1      -4.548  -4.009   1.277  1.00  0.00    -0.000 A 
HETATM   19  C23 UNL     1      -3.695  -3.288   2.100  1.00  0.00    -0.000 A 
HETATM   20  C24 UNL     1      -3.136  -2.148   1.533  1.00  0.00    -0.003 A 
ENDBRANCH   6  15
ENDBRANCH   3   6
BRANCH   1  21
HETATM   21  C8  UNL     1       2.146   0.216  -0.144  1.00  0.00     0.300 C 
HETATM   22  N1  UNL     1       3.375  -0.489  -0.192  1.00  0.00    -0.207 NA
HETATM   23  O1  UNL     1       2.182   1.472  -0.019  1.00  0.00    -0.263 OA
BRANCH  22  24
HETATM   24  C7  UNL     1       4.578   0.235  -0.099  1.00  0.00     0.081 A 
HETATM   25  C2  UNL     1       5.805  -0.398  -0.122  1.00  0.00    -0.003 A 
HETATM   26  C1  UNL     1       5.874  -1.873  -0.247  1.00  0.00     0.033 C 
HETATM   27  C3  UNL     1       6.952   0.340  -0.029  1.00  0.00     0.009 A 
HETATM   28  C4  UNL     1       6.949   1.711   0.089  1.00  0.00     0.058 A 
HETATM   29 CL1  UNL     1       8.489   2.530   0.202  1.00  0.00    -0.082 Cl
HETATM   30  C5  UNL     1       5.734   2.356   0.114  1.00  0.00     0.013 A 
HETATM   31  C6  UNL     1       4.574   1.618   0.021  1.00  0.00     0.020 A 
ENDBRANCH  22  24
ENDBRANCH   1  21
TORSDOF 5
