REMARK  0 active torsions:
REMARK  status: ('A' for Active; 'I' for Inactive)
ROOT
HETATM    1  N1  UNL     1      -2.629   1.971   0.272  1.00  0.00    -0.101 NA
HETATM    2  C1  UNL     1      -1.355   1.435  -0.104  1.00  0.00     0.070 C 
HETATM    3  C2  UNL     1      -0.352   2.322  -0.441  1.00  0.00     0.016 C 
HETATM    4  C3  UNL     1       1.027   2.110  -0.513  1.00  0.00     0.024 C 
HETATM    5  C4  UNL     1       1.708   0.997  -0.082  1.00  0.00     0.124 A 
HETATM    6  N2  UNL     1       3.015   0.902   0.199  1.00  0.00    -0.127 NA
HETATM    7  N3  UNL     1       3.275  -0.336   0.582  1.00  0.00    -0.042 NA
HETATM    8  N4  UNL     1       2.185  -1.080   0.569  1.00  0.00    -0.127 NA
HETATM    9  C5  UNL     1       1.162  -0.337   0.169  1.00  0.00     0.124 A 
HETATM   10  C6  UNL     1      -0.134  -0.746   0.026  1.00  0.00     0.022 A 
HETATM   11  C7  UNL     1      -0.204  -2.121   0.015  1.00  0.00     0.002 A 
HETATM   12  C8  UNL     1      -1.440  -2.724  -0.123  1.00  0.00     0.000 A 
HETATM   13  C9  UNL     1      -2.550  -1.911  -0.243  1.00  0.00     0.000 A 
HETATM   14  C10 UNL     1      -2.467  -0.534  -0.231  1.00  0.00     0.001 A 
HETATM   15  C11 UNL     1      -1.241   0.052  -0.094  1.00  0.00     0.015 A 
ENDROOT
TORSDOF 0
