REMARK  5 active torsions:
REMARK  status: ('A' for Active; 'I' for Inactive)
REMARK    1  A    between atoms: O1_2  and  C2_3 
REMARK    2  A    between atoms: C2_3  and  C3_5 
REMARK    3  A    between atoms: C6_8  and  N1_11 
REMARK       I    between atoms: N1_11  and  C9_12 
REMARK    4  A    between atoms: C9_12  and  C10_14 
REMARK    5  A    between atoms: C13_17  and  C16_20 
ROOT
HETATM    1  C10 UNL     1      -0.463  -1.064  -0.018  1.00  0.00     0.058 A 
HETATM    2  C11 UNL     1      -1.054  -0.819  -1.236  1.00  0.00     0.005 A 
HETATM    3  C12 UNL     1      -2.377  -0.365  -1.294  1.00  0.00     0.000 A 
HETATM    4  C13 UNL     1      -3.098  -0.160  -0.144  1.00  0.00     0.002 A 
HETATM    5  C14 UNL     1      -2.462  -0.421   1.071  1.00  0.00     0.000 A 
HETATM    6  C15 UNL     1      -1.171  -0.865   1.138  1.00  0.00     0.005 A 
ENDROOT
BRANCH   1   7
HETATM    7  C9  UNL     1       0.928  -1.532   0.053  1.00  0.00     0.275 C 
HETATM    8  N1  UNL     1       1.632  -1.644   1.258  1.00  0.00    -0.236 NA
HETATM    9  O3  UNL     1       1.506  -1.843  -1.020  1.00  0.00    -0.266 OA
BRANCH   8  10
HETATM   10  C6  UNL     1       3.012  -2.100   1.307  1.00  0.00     0.107 C 
HETATM   11  C5  UNL     1       3.796  -1.124   2.181  1.00  0.00     0.025 C 
HETATM   12  C4  UNL     1       3.919   0.217   1.476  1.00  0.00     0.012 C 
HETATM   13  C3  UNL     1       4.823  -0.053   0.263  1.00  0.00     0.087 C 
HETATM   14  C8  UNL     1       4.039  -0.924  -0.666  1.00  0.00     0.012 C 
HETATM   15  C7  UNL     1       3.622  -2.205  -0.064  1.00  0.00     0.025 C 
BRANCH  13  16
HETATM   16  C2  UNL     1       5.183   1.245  -0.384  1.00  0.00     0.271 C 
HETATM   17  O2  UNL     1       4.953   1.508  -1.572  1.00  0.00    -0.264 OA
BRANCH  16  18
HETATM   18  O1  UNL     1       5.812   2.197   0.411  1.00  0.00    -0.299 OA
HETATM   19  C1  UNL     1       6.193   3.464  -0.123  1.00  0.00     0.184 C 
ENDBRANCH  16  18
ENDBRANCH  13  16
ENDBRANCH   8  10
ENDBRANCH   1   7
BRANCH   4  20
HETATM   20  C16 UNL     1      -4.470   0.319  -0.172  1.00  0.00     0.025 A 
HETATM   21  C17 UNL     1      -5.416  -0.318   0.588  1.00  0.00     0.002 A 
HETATM   22  C18 UNL     1      -6.739   0.072   0.615  1.00  0.00     0.000 A 
HETATM   23  C19 UNL     1      -7.118   1.144  -0.154  1.00  0.00     0.002 A 
HETATM   24  C20 UNL     1      -6.202   1.808  -0.928  1.00  0.00     0.027 A 
HETATM   25  C21 UNL     1      -4.871   1.384  -0.929  1.00  0.00     0.131 A 
HETATM   26  O4  UNL     1      -3.978   2.082  -1.721  1.00  0.00    -0.190 OA
ENDBRANCH   4  20
TORSDOF 5
