REMARK  4 active torsions:
REMARK  status: ('A' for Active; 'I' for Inactive)
REMARK    1  A    between atoms: O1_2  and  C2_3 
REMARK    2  A    between atoms: C5_6  and  C8_9 
REMARK    3  A    between atoms: N2_12  and  C10_13 
REMARK    4  A    between atoms: C10_13  and  C11_14 
ROOT
HETATM    1  C8  UNL     1       0.558  -0.776   0.288  1.00  0.00     0.084 A 
HETATM    2  N1  UNL     1      -0.428   0.103   0.519  1.00  0.00    -0.226 NA
HETATM    3  C9  UNL     1      -1.692  -0.339   0.605  1.00  0.00     0.172 A 
HETATM    4  N2  UNL     1      -2.846   0.357   0.831  1.00  0.00    -0.259 N 
HETATM    5  C14 UNL     1      -3.824  -0.565   0.820  1.00  0.00     0.375 A 
HETATM    6  O2  UNL     1      -5.070  -0.393   0.987  1.00  0.00    -0.237 OA
HETATM    7  O3  UNL     1      -3.319  -1.754   0.604  1.00  0.00    -0.255 OA
HETATM    8  C15 UNL     1      -2.017  -1.678   0.464  1.00  0.00     0.152 A 
HETATM    9  C16 UNL     1      -1.016  -2.596   0.226  1.00  0.00     0.097 A 
HETATM   10  N3  UNL     1      -1.343  -3.972   0.080  1.00  0.00    -0.098 NA
HETATM   11  C17 UNL     1       0.260  -2.111   0.144  1.00  0.00     0.035 A 
ENDROOT
BRANCH   1  12
HETATM   12  C5  UNL     1       1.959  -0.368   0.182  1.00  0.00     0.018 A 
HETATM   13  C4  UNL     1       2.340   0.951   0.314  1.00  0.00     0.004 A 
HETATM   14  C3  UNL     1       3.659   1.332   0.213  1.00  0.00     0.024 A 
HETATM   15  C2  UNL     1       4.660   0.413  -0.025  1.00  0.00     0.094 A 
HETATM   16  C7  UNL     1       4.263  -0.900  -0.154  1.00  0.00     0.024 A 
HETATM   17  C6  UNL     1       2.947  -1.295  -0.056  1.00  0.00     0.004 A 
BRANCH  15  18
HETATM   18  O1  UNL     1       6.009   0.787  -0.130  1.00  0.00    -0.328 OA
HETATM   19  C1  UNL     1       6.377   2.144   0.009  1.00  0.00     0.181 C 
ENDBRANCH  15  18
ENDBRANCH   1  12
BRANCH   4  20
HETATM   20  C10 UNL     1      -2.998   1.774   1.038  1.00  0.00     0.113 C 
BRANCH  20  21
HETATM   21  C11 UNL     1      -3.217   2.514  -0.273  1.00  0.00     0.023 C 
HETATM   22  C12 UNL     1      -3.365   3.990   0.038  1.00  0.00     0.002 C 
HETATM   23  C13 UNL     1      -1.899   2.379  -1.047  1.00  0.00     0.002 C 
ENDBRANCH  20  21
ENDBRANCH   4  20
TORSDOF 4
