REMARK  6 active torsions:
REMARK  status: ('A' for Active; 'I' for Inactive)
REMARK    1  A    between atoms: C2_2  and  C3_3 
REMARK    2  A    between atoms: C3_3  and  C4_4 
REMARK    3  A    between atoms: C4_4  and  O1_5 
REMARK    4  A    between atoms: O1_5  and  C5_6 
REMARK    5  A    between atoms: C16_20  and  O3_21 
REMARK    6  A    between atoms: C18_23  and  O4_24 
ROOT
HETATM    1  C5  UNL     1       2.204   0.186   0.090  1.00  0.00     0.120 A 
HETATM    2  C6  UNL     1       1.104   0.389   0.896  1.00  0.00     0.051 A 
HETATM    3  C7  UNL     1      -0.202   0.177   0.478  1.00  0.00     0.103 A 
HETATM    4  O2  UNL     1      -1.317   0.375   1.274  1.00  0.00    -0.329 OA
HETATM    5  C8  UNL     1      -2.257  -0.633   1.484  1.00  0.00     0.165 C 
HETATM    6  C9  UNL     1      -3.069  -1.023   0.302  1.00  0.00     0.111 C 
HETATM    7  C10 UNL     1      -4.482  -0.648   0.359  1.00  0.00     0.070 C 
HETATM    8  N1  UNL     1      -5.277  -1.451   1.006  1.00  0.00    -0.157 N 
HETATM    9  C11 UNL     1      -5.052   0.567  -0.262  1.00  0.00     0.040 C 
HETATM   10  C12 UNL     1      -6.563   0.539  -0.189  1.00  0.00     0.006 C 
HETATM   11  C13 UNL     1      -4.689   0.688  -1.732  1.00  0.00     0.017 C 
HETATM   12  C14 UNL     1      -3.230   1.021  -1.915  1.00  0.00     0.054 C 
HETATM   13 BR1  UNL     1      -2.217  -0.534  -1.362  1.00  0.00    -0.147 Br
HETATM   14  C15 UNL     1      -0.410  -0.259  -0.814  1.00  0.00     0.064 A 
HETATM   15  C16 UNL     1       0.659  -0.465  -1.625  1.00  0.00     0.125 A 
HETATM   16  C18 UNL     1       1.950  -0.252  -1.199  1.00  0.00     0.139 A 
ENDROOT
BRANCH   1  17
HETATM   17  O1  UNL     1       3.493   0.413   0.555  1.00  0.00    -0.329 OA
BRANCH  17  18
HETATM   18  C4  UNL     1       3.666   0.856   1.875  1.00  0.00     0.149 C 
BRANCH  18  19
HETATM   19  C3  UNL     1       5.105   1.058   2.242  1.00  0.00     0.033 C 
BRANCH  19  20
HETATM   20  C2  UNL     1       5.783   2.086   1.362  1.00  0.00     0.003 C 
HETATM   21  C1  UNL     1       7.214   2.271   1.746  1.00  0.00     0.000 C 
ENDBRANCH  19  20
ENDBRANCH  18  19
ENDBRANCH  17  18
ENDBRANCH   1  17
BRANCH  16  22
HETATM   22  O4  UNL     1       3.054  -0.457  -2.017  1.00  0.00    -0.324 OA
HETATM   23  C19 UNL     1       3.737  -1.676  -2.114  1.00  0.00     0.182 C 
ENDBRANCH  16  22
BRANCH  15  24
HETATM   24  O3  UNL     1       0.417  -0.910  -2.938  1.00  0.00    -0.326 OA
HETATM   25  C17 UNL     1       0.378  -2.319  -3.121  1.00  0.00     0.181 C 
ENDBRANCH  15  24
TORSDOF 6
