REMARK  7 active torsions:
REMARK  status: ('A' for Active; 'I' for Inactive)
REMARK    1  A    between atoms: S1_2  and  C2_5 
REMARK    2  A    between atoms: C5_8  and  C8_11 
REMARK    3  A    between atoms: C13_17  and  C14_18 
REMARK    4  A    between atoms: C14_18  and  C15_19 
REMARK    5  A    between atoms: C15_19  and  C16_20 
REMARK    6  A    between atoms: C18_22  and  O3_23 
REMARK    7  A    between atoms: C26_33  and  N2_34 
ROOT
HETATM    1  C8  UNL     1      -1.057  -0.857  -1.457  1.00  0.00     0.017 C 
HETATM    2  C9  UNL     1      -0.263  -1.577  -2.355  1.00  0.00     0.003 C 
HETATM    3  C10 UNL     1       0.945  -1.229  -2.888  1.00  0.00     0.019 C 
HETATM    4  C11 UNL     1       1.820  -0.261  -2.412  1.00  0.00     0.081 A 
HETATM    5  N1  UNL     1       3.071  -0.059  -2.854  1.00  0.00    -0.244 NA
HETATM    6  C12 UNL     1       3.641   0.948  -2.187  1.00  0.00     0.095 A 
HETATM    7  C13 UNL     1       2.786   1.461  -1.267  1.00  0.00    -0.001 A 
HETATM    8  C24 UNL     1       1.620   0.735  -1.366  1.00  0.00     0.017 A 
HETATM    9  C25 UNL     1       0.461   0.914  -0.612  1.00  0.00     0.019 C 
HETATM   10  C26 UNL     1      -0.781   0.348  -0.842  1.00  0.00     0.073 C 
ENDROOT
BRANCH   7  11
HETATM   11  C14 UNL     1       2.949   2.569  -0.295  1.00  0.00     0.033 C 
BRANCH  11  12
HETATM   12  C15 UNL     1       3.176   2.050   1.111  1.00  0.00     0.031 C 
BRANCH  12  13
HETATM   13  C16 UNL     1       4.387   1.214   1.205  1.00  0.00    -0.018 A 
HETATM   14  C17 UNL     1       4.385  -0.170   1.005  1.00  0.00     0.022 A 
HETATM   15  C18 UNL     1       5.530  -0.915   1.099  1.00  0.00     0.118 A 
HETATM   16  C20 UNL     1       6.741  -0.336   1.395  1.00  0.00     0.141 A 
HETATM   17  O4  UNL     1       8.055  -0.810   1.558  1.00  0.00    -0.298 OA
HETATM   18  C22 UNL     1       6.781   1.039   1.601  1.00  0.00     0.121 A 
HETATM   19  C21 UNL     1       8.946   0.278   1.688  1.00  0.00     0.304 C 
HETATM   20  O5  UNL     1       8.092   1.382   1.882  1.00  0.00    -0.299 OA
HETATM   21  C23 UNL     1       5.613   1.773   1.502  1.00  0.00     0.022 A 
BRANCH  15  22
HETATM   22  O3  UNL     1       5.477  -2.275   0.892  1.00  0.00    -0.326 OA
HETATM   23  C19 UNL     1       4.245  -2.894   0.587  1.00  0.00     0.181 C 
ENDBRANCH  15  22
ENDBRANCH  12  13
ENDBRANCH  11  12
ENDBRANCH   7  11
BRANCH  10  24
HETATM   24  N2  UNL     1      -1.955   1.037  -0.420  1.00  0.00    -0.245 N 
HETATM   25  S2  UNL     1      -3.200   1.555  -1.419  1.00  0.00    -0.002 SA
HETATM   26  C27 UNL     1      -4.223   2.270  -0.248  1.00  0.00     0.051 A 
HETATM   27  C28 UNL     1      -5.466   2.928  -0.273  1.00  0.00     0.008 A 
HETATM   28  C32 UNL     1      -3.521   2.064   0.904  1.00  0.00     0.064 A 
HETATM   29  C29 UNL     1      -6.040   3.404   0.896  1.00  0.00     0.001 A 
HETATM   30  C30 UNL     1      -5.314   3.183   2.039  1.00  0.00     0.000 A 
HETATM   31  C31 UNL     1      -4.106   2.548   2.094  1.00  0.00     0.005 A 
HETATM   32  C33 UNL     1      -2.339   1.418   0.796  1.00  0.00     0.271 A 
HETATM   33  O6  UNL     1      -1.546   1.140   1.784  1.00  0.00    -0.266 OA
ENDBRANCH  10  24
BRANCH   1  34
HETATM   34  C5  UNL     1      -2.358  -1.403  -1.085  1.00  0.00     0.002 A 
HETATM   35  C4  UNL     1      -3.234  -1.923  -2.017  1.00  0.00     0.001 A 
HETATM   36  C3  UNL     1      -4.465  -2.436  -1.649  1.00  0.00     0.011 A 
HETATM   37  C2  UNL     1      -4.880  -2.453  -0.334  1.00  0.00     0.084 A 
HETATM   38  C7  UNL     1      -4.012  -1.935   0.603  1.00  0.00     0.011 A 
HETATM   39  C6  UNL     1      -2.787  -1.427   0.227  1.00  0.00     0.001 A 
BRANCH  37  40
HETATM   40  S1  UNL     1      -6.434  -3.096   0.149  1.00  0.00     0.191 S 
HETATM   41  C1  UNL     1      -6.319  -4.836   0.528  1.00  0.00     0.145 C 
HETATM   42  O1  UNL     1      -7.457  -2.947  -0.940  1.00  0.00    -0.222 OA
HETATM   43  O2  UNL     1      -6.961  -2.420   1.376  1.00  0.00    -0.222 OA
ENDBRANCH  37  40
ENDBRANCH   1  34
TORSDOF 7
