REMARK  4 active torsions:
REMARK  status: ('A' for Active; 'I' for Inactive)
REMARK    1  A    between atoms: C6_7  and  N1_8 
REMARK    2  A    between atoms: C7_11  and  C8_12 
REMARK    3  A    between atoms: C11_15  and  C14_18 
REMARK    4  A    between atoms: C15_22  and  C16_23 
ROOT
HETATM    1  N1  UNL     1      -2.225   0.255   0.866  1.00  0.00    -0.232 N 
HETATM    2  N2  UNL     1      -1.834   0.836   2.008  1.00  0.00     0.011 NA
HETATM    3  N3  UNL     1      -0.510   0.762   2.117  1.00  0.00    -0.157 NA
HETATM    4  C7  UNL     1      -0.026   0.126   1.046  1.00  0.00     0.114 A 
HETATM    5  C15 UNL     1      -1.136  -0.195   0.257  1.00  0.00     0.111 A 
ENDROOT
BRANCH   4   6
HETATM    6  C8  UNL     1       1.393  -0.088   0.757  1.00  0.00     0.020 A 
HETATM    7  C9  UNL     1       2.047  -1.205   0.401  1.00  0.00     0.002 A 
HETATM    8  C10 UNL     1       3.391  -1.219   0.084  1.00  0.00     0.004 A 
HETATM    9  C11 UNL     1       4.171  -0.107   0.104  1.00  0.00     0.071 A 
HETATM   10  C12 UNL     1       3.509   1.070   0.478  1.00  0.00     0.004 A 
HETATM   11  C13 UNL     1       2.182   1.079   0.788  1.00  0.00     0.002 A 
BRANCH   9  12
HETATM   12  C14 UNL     1       5.604  -0.016  -0.230  1.00  0.00     0.419 C 
HETATM   13  F2  UNL     1       6.225  -1.210  -0.379  1.00  0.00    -0.166 F 
HETATM   14  F3  UNL     1       6.185   0.632   0.873  1.00  0.00    -0.166 F 
HETATM   15  F4  UNL     1       5.814   0.797  -1.352  1.00  0.00    -0.166 F 
ENDBRANCH   9  12
ENDBRANCH   4   6
BRANCH   5  16
HETATM   16  C16 UNL     1      -0.996  -0.945  -1.007  1.00  0.00     0.240 C 
HETATM   17  F5  UNL     1      -0.550  -0.166  -2.041  1.00  0.00    -0.228 F 
ENDBRANCH   5  16
BRANCH   1  18
HETATM   18  C6  UNL     1      -3.539   0.187   0.317  1.00  0.00     0.106 A 
HETATM   19  C1  UNL     1      -4.516  -0.685   0.719  1.00  0.00     0.157 A 
HETATM   20  F1  UNL     1      -4.221  -1.615   1.682  1.00  0.00    -0.203 F 
HETATM   21  C2  UNL     1      -5.770  -0.686   0.170  1.00  0.00     0.031 A 
HETATM   22  C3  UNL     1      -6.139   0.195  -0.825  1.00  0.00     0.002 A 
HETATM   23  C4  UNL     1      -5.164   1.090  -1.249  1.00  0.00     0.002 A 
HETATM   24  C5  UNL     1      -3.895   1.109  -0.715  1.00  0.00     0.021 A 
ENDBRANCH   1  18
TORSDOF 4
