REMARK  1 active torsions:
REMARK  status: ('A' for Active; 'I' for Inactive)
REMARK    1  A    between atoms: C6_7  and  N1_8 
REMARK       I    between atoms: N1_8  and  C7_9 
ROOT
HETATM    1  O1  UNL     1      -0.150   1.363  -1.666  1.00  0.00    -0.221 OA
HETATM    2  C1  UNL     1      -0.894   0.298  -1.216  1.00  0.00     0.174 C 
HETATM    3  C2  UNL     1      -2.294   0.649  -0.800  1.00  0.00     0.035 C 
HETATM    4  C3  UNL     1      -2.466   0.691   0.697  1.00  0.00     0.003 C 
HETATM    5  C4  UNL     1      -2.107  -0.609   1.348  1.00  0.00     0.002 C 
HETATM    6  C5  UNL     1      -1.046  -1.399   0.628  1.00  0.00     0.027 C 
HETATM    7  C6  UNL     1      -0.174  -0.579  -0.255  1.00  0.00     0.137 C 
ENDROOT
BRANCH   7   8
HETATM    8  N1  UNL     1       0.924   0.069   0.418  1.00  0.00    -0.237 NA
HETATM    9  C7  UNL     1       2.269  -0.122   0.009  1.00  0.00     0.252 C 
HETATM   10  O2  UNL     1       2.503  -0.877  -0.963  1.00  0.00    -0.271 OA
HETATM   11  C8  UNL     1       3.435   0.517   0.658  1.00  0.00     0.100 C 
ENDBRANCH   7   8
TORSDOF 1
