REMARK  7 active torsions:
REMARK  status: ('A' for Active; 'I' for Inactive)
REMARK    1  A    between atoms: O1_2  and  C2_3 
REMARK    2  A    between atoms: C5_6  and  N1_7 
REMARK       I    between atoms: N1_7  and  C6_8 
REMARK    3  A    between atoms: C6_8  and  C7_10 
REMARK    4  A    between atoms: C7_10  and  C8_11 
REMARK    5  A    between atoms: C8_11  and  C9_12 
REMARK    6  A    between atoms: C9_12  and  S1_13 
REMARK    7  A    between atoms: S1_13  and  C10_14 
ROOT
HETATM    1  C8  UNL     1      -0.539  -0.654   0.588  1.00  0.00     0.022 C 
ENDROOT
BRANCH   1   2
HETATM    2  C7  UNL     1       0.520  -1.590   0.062  1.00  0.00     0.091 C 
BRANCH   2   3
HETATM    3  C6  UNL     1       1.808  -0.851   0.063  1.00  0.00     0.256 C 
HETATM    4  N1  UNL     1       2.962  -1.542  -0.392  1.00  0.00    -0.212 NA
HETATM    5  O2  UNL     1       1.944   0.335   0.435  1.00  0.00    -0.270 OA
BRANCH   4   6
HETATM    6  C5  UNL     1       4.217  -0.869  -0.407  1.00  0.00     0.085 A 
HETATM    7  C4  UNL     1       5.327  -1.568  -0.849  1.00  0.00     0.021 A 
HETATM    8  C3  UNL     1       6.558  -0.946  -0.877  1.00  0.00     0.026 A 
HETATM    9  C2  UNL     1       6.659   0.355  -0.466  1.00  0.00     0.094 A 
HETATM   10  C18 UNL     1       5.547   1.071  -0.018  1.00  0.00     0.026 A 
HETATM   11  C17 UNL     1       4.320   0.443   0.007  1.00  0.00     0.021 A 
BRANCH   9  12
HETATM   12  O1  UNL     1       7.872   0.989  -0.487  1.00  0.00    -0.328 OA
HETATM   13  C1  UNL     1       9.015   0.294  -0.934  1.00  0.00     0.181 C 
ENDBRANCH   9  12
ENDBRANCH   4   6
ENDBRANCH   2   3
ENDBRANCH   1   2
BRANCH   1  14
HETATM   14  C9  UNL     1      -0.657   0.579  -0.282  1.00  0.00     0.063 C 
BRANCH  14  15
HETATM   15  S1  UNL     1      -1.913   1.705   0.329  1.00  0.00    -0.109 SA
BRANCH  15  16
HETATM   16  C10 UNL     1      -3.557   0.993   0.204  1.00  0.00     0.092 C 
HETATM   17  C11 UNL     1      -4.612   1.677   0.611  1.00  0.00     0.197 C 
HETATM   18  O3  UNL     1      -4.428   2.955   1.136  1.00  0.00    -0.184 OA
HETATM   19  C12 UNL     1      -5.964   1.173   0.543  1.00  0.00     0.301 C 
HETATM   20  O4  UNL     1      -6.986   1.799   0.922  1.00  0.00    -0.263 OA
HETATM   21  N2  UNL     1      -6.173  -0.141   0.005  1.00  0.00    -0.229 NA
HETATM   22  C13 UNL     1      -5.071  -1.061  -0.198  1.00  0.00     0.143 C 
HETATM   23  C14 UNL     1      -4.941  -1.945   1.032  1.00  0.00     0.033 C 
HETATM   24  C15 UNL     1      -5.265  -1.932  -1.419  1.00  0.00     0.033 C 
HETATM   25  C16 UNL     1      -3.780  -0.339  -0.340  1.00  0.00     0.201 C 
HETATM   26  O5  UNL     1      -2.863  -0.931  -0.960  1.00  0.00    -0.289 OA
ENDBRANCH  15  16
ENDBRANCH  14  15
ENDBRANCH   1  14
TORSDOF 7
