REMARK  5 active torsions:
REMARK  status: ('A' for Active; 'I' for Inactive)
REMARK    1  A    between atoms: C1_2  and  C2_3 
REMARK    2  A    between atoms: N1_6  and  C5_7 
REMARK    3  A    between atoms: C5_7  and  C6_8 
REMARK    4  A    between atoms: N3_12  and  C9_13 
REMARK    5  A    between atoms: C9_13  and  C10_14 
ROOT
HETATM    1  C10 UNL     1       2.012  -0.376   0.951  1.00  0.00     0.002 A 
HETATM    2  C11 UNL     1       3.211   0.195   1.342  1.00  0.00    -0.002 A 
HETATM    3  C12 UNL     1       4.383  -0.159   0.710  1.00  0.00     0.007 A 
HETATM    4  C13 UNL     1       4.406  -1.073  -0.312  1.00  0.00     0.030 A 
HETATM    5  C14 UNL     1       3.216  -1.636  -0.696  1.00  0.00     0.007 A 
HETATM    6  C15 UNL     1       2.020  -1.293  -0.071  1.00  0.00    -0.002 A 
HETATM    7  C16 UNL     1       5.628  -1.437  -0.966  1.00  0.00    -0.127 C 
HETATM    8  C17 UNL     1       6.669  -1.752  -1.527  1.00  0.00     0.081 C 
ENDROOT
BRANCH   1   9
HETATM    9  C9  UNL     1       0.749  -0.013   1.612  1.00  0.00     0.154 C 
BRANCH   9  10
HETATM   10  N3  UNL     1       0.152   1.118   0.916  1.00  0.00    -0.249 N 
HETATM   11  C6  UNL     1      -0.694   0.994  -0.096  1.00  0.00     0.091 A 
HETATM   12  C7  UNL     1      -1.045   2.259  -0.497  1.00  0.00     0.039 A 
HETATM   13  C8  UNL     1      -0.351   3.114   0.345  1.00  0.00     0.121 A 
HETATM   14  N2  UNL     1       0.379   2.391   1.205  1.00  0.00    -0.168 NA
BRANCH  11  15
HETATM   15  C5  UNL     1      -1.176  -0.281  -0.690  1.00  0.00     0.295 C 
BRANCH  15  16
HETATM   16  N1  UNL     1      -2.366  -0.671   0.012  1.00  0.00     0.143 N 
HETATM   17  C4  UNL     1      -2.956  -1.888  -0.445  1.00  0.00     0.251 C 
HETATM   18  C3  UNL     1      -4.401  -1.638  -0.730  1.00  0.00     0.040 C 
HETATM   19  C2  UNL     1      -4.711  -0.335  -0.063  1.00  0.00     0.068 C 
HETATM   20  C18 UNL     1      -3.373   0.361  -0.035  1.00  0.00     0.253 C 
BRANCH  19  21
HETATM   21  C1  UNL     1      -5.732   0.458  -0.865  1.00  0.00     0.184 C 
HETATM   22  O1  UNL     1      -6.020   1.664  -0.250  1.00  0.00    -0.221 OA
ENDBRANCH  19  21
ENDBRANCH  15  16
ENDBRANCH  11  15
ENDBRANCH   9  10
ENDBRANCH   1   9
TORSDOF 5
