REMARK  5 active torsions:
REMARK  status: ('A' for Active; 'I' for Inactive)
REMARK    1  A    between atoms: C2_2  and  O1_3 
REMARK    2  A    between atoms: O1_3  and  C3_4 
REMARK    3  A    between atoms: C3_4  and  C4_6 
REMARK    4  A    between atoms: C8_12  and  N2_13 
REMARK       I    between atoms: N2_13  and  C9_14 
REMARK       I    between atoms: C9_14  and  N3_16 
REMARK    5  A    between atoms: N3_16  and  C10_17 
ROOT
HETATM    1  C4  UNL     1      -2.526  -0.698  -0.432  1.00  0.00     0.085 A 
HETATM    2  C5  UNL     1      -3.715  -1.133   0.099  1.00  0.00     0.028 A 
HETATM    3  C6  UNL     1      -3.784  -2.324   0.805  1.00  0.00     0.100 A 
HETATM    4  N1  UNL     1      -2.653  -3.053   0.962  1.00  0.00    -0.231 NA
HETATM    5  C7  UNL     1      -1.511  -2.624   0.447  1.00  0.00     0.156 A 
HETATM    6 CL1  UNL     1      -0.071  -3.626   0.695  1.00  0.00    -0.060 Cl
HETATM    7  C8  UNL     1      -1.404  -1.452  -0.259  1.00  0.00     0.120 A 
ENDROOT
BRANCH   7   8
HETATM    8  N2  UNL     1      -0.172  -1.050  -0.780  1.00  0.00    -0.189 NA
HETATM    9  C9  UNL     1       0.797  -0.259  -0.144  1.00  0.00     0.364 C 
HETATM   10  O3  UNL     1       0.531   0.130   1.022  1.00  0.00    -0.243 OA
HETATM   11  N3  UNL     1       2.046   0.134  -0.704  1.00  0.00    -0.219 NA
BRANCH  11  12
HETATM   12  C10 UNL     1       2.921   0.950   0.102  1.00  0.00     0.108 C 
HETATM   13  C11 UNL     1       3.451   0.132   1.278  1.00  0.00     0.025 C 
HETATM   14  C12 UNL     1       4.362   1.026   2.060  1.00  0.00     0.002 C 
HETATM   15  C13 UNL     1       5.520   1.543   1.258  1.00  0.00     0.000 C 
HETATM   16  C14 UNL     1       5.019   2.256   0.025  1.00  0.00     0.002 C 
HETATM   17  C15 UNL     1       4.127   1.310  -0.730  1.00  0.00     0.025 C 
ENDBRANCH  11  12
ENDBRANCH   7   8
BRANCH   1  18
HETATM   18  C3  UNL     1      -2.428   0.548  -1.172  1.00  0.00     0.297 C 
HETATM   19  O2  UNL     1      -1.325   0.904  -1.628  1.00  0.00    -0.259 OA
BRANCH  18  20
HETATM   20  O1  UNL     1      -3.555   1.359  -1.381  1.00  0.00    -0.298 OA
BRANCH  20  21
HETATM   21  C2  UNL     1      -3.329   2.568  -2.130  1.00  0.00     0.152 C 
HETATM   22  C1  UNL     1      -2.301   3.356  -1.308  1.00  0.00     0.035 C 
ENDBRANCH  20  21
ENDBRANCH  18  20
ENDBRANCH   1  18
TORSDOF 5
