REMARK  6 active torsions:
REMARK  status: ('A' for Active; 'I' for Inactive)
REMARK    1  A    between atoms: C1_2  and  N2_3 
REMARK    2  A    between atoms: C1_2  and  C15_18 
REMARK    3  A    between atoms: N2_3  and  C2_4 
REMARK    4  A    between atoms: C5_7  and  O1_10 
REMARK    5  A    between atoms: O1_10  and  C8_11 
REMARK    6  A    between atoms: C8_11  and  C9_12 
ROOT
HETATM    1  C2  UNL     1       1.177  -0.828  -0.264  1.00  0.00     0.083 A 
HETATM    2  C3  UNL     1       0.573   0.362   0.083  1.00  0.00     0.021 A 
HETATM    3  C4  UNL     1      -0.795   0.537   0.067  1.00  0.00     0.026 A 
HETATM    4  C5  UNL     1      -1.619  -0.504  -0.306  1.00  0.00     0.095 A 
HETATM    5  C6  UNL     1      -1.024  -1.721  -0.661  1.00  0.00     0.026 A 
HETATM    6  C7  UNL     1       0.348  -1.861  -0.634  1.00  0.00     0.021 A 
ENDROOT
BRANCH   1   7
HETATM    7  N2  UNL     1       2.591  -0.987  -0.240  1.00  0.00    -0.226 NA
BRANCH   7   8
HETATM    8  C1  UNL     1       3.474   0.060   0.138  1.00  0.00     0.176 C 
HETATM    9  N1  UNL     1       3.087   1.268  -0.093  1.00  0.00    -0.128 N 
BRANCH   8  10
HETATM   10  C15 UNL     1       4.784  -0.188   0.769  1.00  0.00    -0.007 C 
HETATM   11  C16 UNL     1       5.575   0.985   1.098  1.00  0.00     0.025 C 
HETATM   12  C17 UNL     1       7.044   0.901   0.894  1.00  0.00     0.004 C 
HETATM   13  C18 UNL     1       7.440  -0.167  -0.123  1.00  0.00     0.001 C 
HETATM   14  C19 UNL     1       6.914  -1.482   0.448  1.00  0.00     0.004 C 
HETATM   15  C20 UNL     1       5.431  -1.449   0.444  1.00  0.00     0.025 C 
ENDBRANCH   8  10
ENDBRANCH   7   8
ENDBRANCH   1   7
BRANCH   4  16
HETATM   16  O1  UNL     1      -2.991  -0.351  -0.329  1.00  0.00    -0.326 OA
BRANCH  16  17
HETATM   17  C8  UNL     1      -3.540   0.898   0.039  1.00  0.00     0.175 C 
BRANCH  17  18
HETATM   18  C9  UNL     1      -5.026   0.821  -0.063  1.00  0.00     0.008 A 
HETATM   19  C10 UNL     1      -5.642  -0.342  -0.464  1.00  0.00    -0.002 A 
HETATM   20  C11 UNL     1      -7.027  -0.410  -0.557  1.00  0.00    -0.000 A 
HETATM   21  C12 UNL     1      -7.808   0.689  -0.250  1.00  0.00    -0.000 A 
HETATM   22  C13 UNL     1      -7.173   1.844   0.150  1.00  0.00    -0.000 A 
HETATM   23  C14 UNL     1      -5.793   1.923   0.247  1.00  0.00    -0.002 A 
ENDBRANCH  17  18
ENDBRANCH  16  17
ENDBRANCH   4  16
TORSDOF 6
