REMARK  7 active torsions:
REMARK  status: ('A' for Active; 'I' for Inactive)
REMARK    1  A    between atoms: C2_2  and  C4_4 
REMARK    2  A    between atoms: C4_4  and  O1_5 
REMARK    3  A    between atoms: O1_5  and  C5_6 
REMARK    4  A    between atoms: C9_11  and  C10_12 
REMARK    5  A    between atoms: C10_12  and  C11_13 
REMARK    6  A    between atoms: C14_20  and  C15_21 
REMARK    7  A    between atoms: C15_21  and  C16_23 
ROOT
HETATM    1  C5  UNL     1       2.316  -0.050   0.293  1.00  0.00     0.088 A 
HETATM    2  C6  UNL     1       1.940   1.266   0.288  1.00  0.00     0.024 A 
HETATM    3  C7  UNL     1       2.948   2.365   0.568  1.00  0.00     0.035 C 
HETATM    4  C8  UNL     1       0.651   1.601  -0.059  1.00  0.00     0.115 A 
HETATM    5  O2  UNL     1       0.175   2.903  -0.098  1.00  0.00    -0.321 OA
HETATM    6  C9  UNL     1      -0.853   3.132  -1.104  1.00  0.00     0.218 C 
HETATM    7  C12 UNL     1      -1.946   2.144  -0.771  1.00  0.00     0.305 C 
HETATM    8  O5  UNL     1      -3.076   2.533  -0.531  1.00  0.00    -0.261 OA
HETATM    9  O6  UNL     1      -1.539   0.824  -0.767  1.00  0.00    -0.272 OA
HETATM   10  C13 UNL     1      -0.217   0.563  -0.403  1.00  0.00     0.127 A 
HETATM   11  C14 UNL     1       0.158  -0.778  -0.410  1.00  0.00     0.048 A 
HETATM   12  C23 UNL     1       1.469  -1.083  -0.039  1.00  0.00     0.004 A 
HETATM   13  C24 UNL     1       1.861  -2.498   0.017  1.00  0.00     0.033 C 
ENDROOT
BRANCH  11  14
HETATM   14  C15 UNL     1      -0.695  -1.746  -1.058  1.00  0.00     0.133 C 
HETATM   15  O7  UNL     1      -0.490  -1.813  -2.355  1.00  0.00    -0.190 OA
BRANCH  14  16
HETATM   16  C16 UNL     1      -1.705  -2.609  -0.577  1.00  0.00     0.025 A 
HETATM   17  C17 UNL     1      -2.357  -2.316   0.593  1.00  0.00     0.002 A 
HETATM   18  C18 UNL     1      -3.403  -3.088   0.995  1.00  0.00    -0.004 A 
HETATM   19  C19 UNL     1      -3.786  -4.157   0.224  1.00  0.00    -0.022 A 
HETATM   20  C20 UNL     1      -4.962  -4.943   0.684  1.00  0.00     0.031 C 
HETATM   21  C21 UNL     1      -3.131  -4.465  -0.958  1.00  0.00    -0.004 A 
HETATM   22  C22 UNL     1      -2.085  -3.690  -1.372  1.00  0.00     0.002 A 
ENDBRANCH  14  16
ENDBRANCH  11  14
BRANCH   1  23
HETATM   23  O1  UNL     1       3.638  -0.380   0.632  1.00  0.00    -0.331 OA
BRANCH  23  24
HETATM   24  C4  UNL     1       4.456  -0.445  -0.573  1.00  0.00     0.149 C 
BRANCH  24  25
HETATM   25  C2  UNL     1       5.855  -0.769  -0.169  1.00  0.00     0.030 C 
HETATM   26  C1  UNL     1       6.325   0.337   0.747  1.00  0.00     0.003 C 
HETATM   27  C3  UNL     1       5.851  -2.077   0.584  1.00  0.00     0.003 C 
ENDBRANCH  24  25
ENDBRANCH  23  24
ENDBRANCH   1  23
BRANCH   6  28
HETATM   28  C10 UNL     1      -1.334   4.543  -1.071  1.00  0.00     0.138 C 
BRANCH  28  29
HETATM   29  C11 UNL     1      -1.904   4.839   0.253  1.00  0.00     0.188 C 
HETATM   30  O3  UNL     1      -1.159   4.476   1.355  1.00  0.00    -0.647 OA
HETATM   31  O4  UNL     1      -3.002   5.383   0.389  1.00  0.00    -0.647 OA
ENDBRANCH  28  29
ENDBRANCH   6  28
TORSDOF 7
