REMARK  5 active torsions:
REMARK  status: ('A' for Active; 'I' for Inactive)
REMARK    1  A    between atoms: C2_2  and  C3_3 
REMARK    2  A    between atoms: C3_3  and  C4_4 
REMARK    3  A    between atoms: C4_4  and  C5_5 
REMARK    4  A    between atoms: C6_6  and  C7_7 
REMARK    5  A    between atoms: C7_7  and  C8_8 
ROOT
HETATM    1  C5  UNL     1       0.243  -0.799   0.362  1.00  0.00     0.092 C 
HETATM    2  C6  UNL     1      -1.065  -0.654  -0.424  1.00  0.00     0.133 C 
HETATM    3  C10 UNL     1       0.500   0.626   0.771  1.00  0.00     0.197 C 
HETATM    4  O1  UNL     1       1.067   1.039   1.788  1.00  0.00    -0.289 OA
HETATM    5  C11 UNL     1      -0.080   1.413  -0.316  1.00  0.00     0.129 C 
HETATM    6  C12 UNL     1       0.248   2.652  -0.593  1.00  0.00     0.029 C 
HETATM    7  O2  UNL     1      -1.008   0.651  -0.984  1.00  0.00    -0.330 OA
ENDROOT
BRANCH   1   8
HETATM    8  C4  UNL     1       1.271  -1.198  -0.650  1.00  0.00     0.010 C 
BRANCH   8   9
HETATM    9  C3  UNL     1       2.615  -1.400  -0.093  1.00  0.00     0.001 C 
BRANCH   9  10
HETATM   10  C2  UNL     1       3.148  -0.126   0.499  1.00  0.00     0.000 C 
HETATM   11  C1  UNL     1       3.258   0.950  -0.560  1.00  0.00     0.000 C 
ENDBRANCH   9  10
ENDBRANCH   8   9
ENDBRANCH   1   8
BRANCH   2  12
HETATM   12  C7  UNL     1      -2.249  -0.825   0.499  1.00  0.00     0.057 C 
BRANCH  12  13
HETATM   13  C8  UNL     1      -3.511  -0.690  -0.236  1.00  0.00    -0.024 C 
HETATM   14  C9  UNL     1      -4.436  -1.638  -0.322  1.00  0.00    -0.005 C 
ENDBRANCH  12  13
ENDBRANCH   2  12
TORSDOF 5
