REMARK  6 active torsions:
REMARK  status: ('A' for Active; 'I' for Inactive)
REMARK    1  A    between atoms: C7_7  and  N1_8 
REMARK    2  A    between atoms: N1_8  and  C8_9 
REMARK    3  A    between atoms: C8_9  and  C9_10 
REMARK    4  A    between atoms: C9_10  and  N2_11 
REMARK       I    between atoms: N2_11  and  C10_12 
REMARK    5  A    between atoms: C10_12  and  C11_14 
REMARK    6  A    between atoms: N5_24  and  C19_25 
ROOT
HETATM    1  C1  UNL     1      -2.311   1.177   2.035  1.00  0.00     0.050 C 
HETATM    2  C2  UNL     1      -2.068  -0.157   1.430  1.00  0.00     0.039 C 
HETATM    3  C3  UNL     1      -1.085  -0.904   1.905  1.00  0.00     0.013 C 
HETATM    4  C4  UNL     1      -0.616  -2.236   1.518  1.00  0.00    -0.003 C 
HETATM    5  C5  UNL     1      -1.245  -3.038   0.674  1.00  0.00    -0.022 C 
HETATM    6  C6  UNL     1      -2.502  -2.888  -0.091  1.00  0.00     0.086 C 
HETATM    7  C7  UNL     1      -2.702  -1.521  -0.653  1.00  0.00     0.349 C 
HETATM    8  N5  UNL     1      -2.959  -0.505   0.356  1.00  0.00    -0.303 N 
ENDROOT
BRANCH   7   9
HETATM    9  N1  UNL     1      -1.734  -1.132  -1.632  1.00  0.00     0.362 N 
BRANCH   9  10
HETATM   10  C8  UNL     1      -0.391  -1.067  -1.111  1.00  0.00     0.319 C 
BRANCH  10  11
HETATM   11  C9  UNL     1       0.547  -0.651  -2.224  1.00  0.00     0.167 C 
BRANCH  11  12
HETATM   12  N2  UNL     1       1.924  -0.571  -1.746  1.00  0.00    -0.232 NA
HETATM   13  C10 UNL     1       2.232   0.335  -0.690  1.00  0.00     0.275 C 
HETATM   14  O1  UNL     1       1.300   1.025  -0.220  1.00  0.00    -0.266 OA
BRANCH  13  15
HETATM   15  C11 UNL     1       3.575   0.482  -0.149  1.00  0.00     0.059 A 
HETATM   16  C12 UNL     1       3.787   1.391   0.854  1.00  0.00     0.005 A 
HETATM   17  C13 UNL     1       5.013   1.595   1.420  1.00  0.00     0.002 A 
HETATM   18  C14 UNL     1       6.085   0.847   0.958  1.00  0.00     0.021 A 
HETATM   19  C15 UNL     1       7.347   1.035   1.519  1.00  0.00     0.024 A 
HETATM   20  C17 UNL     1       5.890  -0.069  -0.047  1.00  0.00     0.103 A 
HETATM   21  C16 UNL     1       8.389   0.259   1.019  1.00  0.00     0.122 A 
HETATM   22  N3  UNL     1       8.173  -0.627   0.040  1.00  0.00    -0.146 NA
HETATM   23  N4  UNL     1       6.970  -0.767  -0.455  1.00  0.00    -0.148 NA
HETATM   24  C18 UNL     1       4.644  -0.248  -0.594  1.00  0.00     0.026 A 
ENDBRANCH  13  15
ENDBRANCH  11  12
ENDBRANCH  10  11
ENDBRANCH   9  10
ENDBRANCH   7   9
BRANCH   8  25
HETATM   25  C19 UNL     1      -4.181   0.204   0.285  1.00  0.00     0.083 A 
HETATM   26  C20 UNL     1      -4.251   1.360  -0.442  1.00  0.00     0.075 A 
HETATM   27 CL1  UNL     1      -2.865   2.004  -1.305  1.00  0.00    -0.081 Cl
HETATM   28  C21 UNL     1      -5.431   2.086  -0.535  1.00  0.00     0.024 A 
HETATM   29  C22 UNL     1      -6.556   1.617   0.130  1.00  0.00     0.059 A 
HETATM   30 CL2  UNL     1      -8.030   2.549  -0.001  1.00  0.00    -0.082 Cl
HETATM   31  C23 UNL     1      -6.453   0.451   0.853  1.00  0.00     0.024 A 
HETATM   32  C24 UNL     1      -5.275  -0.271   0.944  1.00  0.00     0.075 A 
HETATM   33 CL3  UNL     1      -5.222  -1.763   1.895  1.00  0.00    -0.081 Cl
ENDBRANCH   8  25
TORSDOF 6
