REMARK  7 active torsions:
REMARK  status: ('A' for Active; 'I' for Inactive)
REMARK    1  A    between atoms: C2_2  and  C3_3 
REMARK    2  A    between atoms: C3_3  and  C4_4 
REMARK    3  A    between atoms: C4_4  and  O1_5 
REMARK    4  A    between atoms: O1_5  and  C5_6 
REMARK    5  A    between atoms: C5_6  and  C6_8 
REMARK    6  A    between atoms: C9_11  and  N1_14 
REMARK    7  A    between atoms: C12_16  and  C15_22 
ROOT
HETATM    1  N1  UNL     1      -1.078   0.592  -0.281  1.00  0.00    -0.179 N 
HETATM    2  N2  UNL     1      -2.071  -0.111   0.252  1.00  0.00    -0.159 NA
HETATM    3  C12 UNL     1      -3.356   0.220   0.086  1.00  0.00     0.132 A 
HETATM    4  C13 UNL     1      -3.593   1.367  -0.694  1.00  0.00     0.160 A 
HETATM    5  N3  UNL     1      -2.609   2.091  -1.242  1.00  0.00    -0.178 NA
HETATM    6  C14 UNL     1      -1.339   1.707  -1.039  1.00  0.00     0.371 A 
HETATM    7  O3  UNL     1      -0.357   2.324  -1.511  1.00  0.00    -0.242 OA
HETATM    8  S1  UNL     1      -5.183   1.769  -0.890  1.00  0.00    -0.056 SA
ENDROOT
BRANCH   1   9
HETATM    9  C9  UNL     1       0.294   0.293  -0.107  1.00  0.00     0.087 A 
HETATM   10  C8  UNL     1       0.816  -0.969  -0.003  1.00  0.00     0.019 A 
HETATM   11  C7  UNL     1       2.182  -1.167   0.175  1.00  0.00     0.007 A 
HETATM   12  C6  UNL     1       3.042  -0.122   0.253  1.00  0.00     0.063 A 
HETATM   13  C11 UNL     1       2.539   1.163   0.151  1.00  0.00     0.007 A 
HETATM   14  C10 UNL     1       1.184   1.357  -0.025  1.00  0.00     0.019 A 
BRANCH  12  15
HETATM   15  C5  UNL     1       4.471  -0.308   0.435  1.00  0.00     0.296 C 
HETATM   16  O2  UNL     1       4.934  -1.478   0.513  1.00  0.00    -0.259 OA
BRANCH  15  17
HETATM   17  O1  UNL     1       5.373   0.743   0.528  1.00  0.00    -0.298 OA
BRANCH  17  18
HETATM   18  C4  UNL     1       6.743   0.479   0.703  1.00  0.00     0.152 C 
BRANCH  18  19
HETATM   19  C3  UNL     1       7.283  -0.331  -0.455  1.00  0.00     0.033 C 
BRANCH  19  20
HETATM   20  C2  UNL     1       8.746  -0.636  -0.305  1.00  0.00     0.003 C 
HETATM   21  C1  UNL     1       9.617   0.606  -0.230  1.00  0.00     0.000 C 
ENDBRANCH  19  20
ENDBRANCH  18  19
ENDBRANCH  17  18
ENDBRANCH  15  17
ENDBRANCH  12  15
ENDBRANCH   1   9
BRANCH   3  22
HETATM   22  C15 UNL     1      -4.492  -0.510   0.642  1.00  0.00     0.049 A 
HETATM   23  C16 UNL     1      -5.386   0.140   1.508  1.00  0.00     0.004 A 
HETATM   24  C17 UNL     1      -6.465  -0.523   2.042  1.00  0.00     0.000 A 
HETATM   25  C18 UNL     1      -6.726  -1.860   1.754  1.00  0.00     0.002 A 
HETATM   26  C19 UNL     1      -5.851  -2.502   0.904  1.00  0.00     0.030 A 
HETATM   27  C20 UNL     1      -4.771  -1.832   0.372  1.00  0.00     0.142 A 
HETATM   28  F1  UNL     1      -3.948  -2.501  -0.459  1.00  0.00    -0.204 F 
ENDBRANCH   3  22
TORSDOF 7
