REMARK  5 active torsions:
REMARK  status: ('A' for Active; 'I' for Inactive)
REMARK    1  A    between atoms: C1_2  and  C2_5 
REMARK    2  A    between atoms: N1_13  and  C9_14 
REMARK    3  A    between atoms: C9_14  and  C10_15 
REMARK    4  A    between atoms: C15_24  and  C16_25 
REMARK    5  A    between atoms: C16_25  and  C17_26 
ROOT
HETATM    1  C2  UNL     1      -3.585  -1.647  -1.817  1.00  0.00     0.072 A 
HETATM    2  C3  UNL     1      -2.524  -2.540  -1.714  1.00  0.00     0.004 A 
HETATM    3  C4  UNL     1      -1.654  -2.386  -0.703  1.00  0.00     0.000 A 
HETATM    4  C5  UNL     1      -1.711  -1.374   0.302  1.00  0.00     0.005 A 
HETATM    5  C6  UNL     1      -2.738  -0.493   0.216  1.00  0.00     0.042 A 
HETATM    6  C7  UNL     1      -3.652  -0.689  -0.882  1.00  0.00     0.007 A 
HETATM    7  C8  UNL     1      -3.140   0.633   1.079  1.00  0.00     0.197 C 
HETATM    8  O1  UNL     1      -4.126   0.301   1.883  1.00  0.00    -0.171 OA
HETATM    9  N1  UNL     1      -2.745   1.964   1.258  1.00  0.00    -0.267 N 
HETATM   10  C12 UNL     1      -2.200   2.856   0.288  1.00  0.00     0.306 C 
HETATM   11  O2  UNL     1      -2.545   4.037   0.200  1.00  0.00    -0.263 OA
HETATM   12  C13 UNL     1      -1.177   2.426  -0.684  1.00  0.00     0.265 A 
HETATM   13  N2  UNL     1      -0.248   1.636  -0.207  1.00  0.00    -0.197 NA
HETATM   14  C14 UNL     1       0.593   1.314  -1.135  1.00  0.00     0.191 A 
HETATM   15  N3  UNL     1       0.229   1.891  -2.245  1.00  0.00    -0.108 NA
HETATM   16  O3  UNL     1      -0.874   2.577  -1.941  1.00  0.00    -0.185 OA
HETATM   17  C15 UNL     1       1.663   0.406  -0.517  1.00  0.00     0.168 C 
HETATM   18  N5  UNL     1       1.160   0.057   0.737  1.00  0.00    -0.265 NA
HETATM   19  C25 UNL     1       0.564  -0.951   1.497  1.00  0.00     0.076 A 
HETATM   20  C26 UNL     1       1.393  -1.384   2.604  1.00  0.00     0.019 A 
HETATM   21  C27 UNL     1       1.073  -2.345   3.485  1.00  0.00     0.002 A 
HETATM   22  C28 UNL     1      -0.158  -2.971   3.315  1.00  0.00     0.000 A 
HETATM   23  C29 UNL     1      -0.934  -2.562   2.276  1.00  0.00     0.002 A 
HETATM   24  C30 UNL     1      -0.637  -1.568   1.343  1.00  0.00     0.017 A 
ENDROOT
BRANCH  17  25
HETATM   25  C16 UNL     1       2.809   1.435  -0.410  1.00  0.00     0.060 C 
BRANCH  25  26
HETATM   26  C17 UNL     1       4.026   0.889   0.181  1.00  0.00     0.001 A 
HETATM   27  C18 UNL     1       4.502   1.026   1.485  1.00  0.00     0.095 A 
HETATM   28  N4  UNL     1       5.650   0.338   1.568  1.00  0.00    -0.244 NA
HETATM   29  C19 UNL     1       5.953  -0.239   0.399  1.00  0.00     0.081 A 
HETATM   30  C20 UNL     1       6.983  -1.026  -0.072  1.00  0.00     0.019 A 
HETATM   31  C24 UNL     1       4.940   0.098  -0.486  1.00  0.00     0.015 A 
HETATM   32  C21 UNL     1       7.020  -1.470  -1.376  1.00  0.00     0.002 A 
HETATM   33  C22 UNL     1       5.992  -1.122  -2.250  1.00  0.00     0.000 A 
HETATM   34  C23 UNL     1       4.968  -0.345  -1.796  1.00  0.00     0.001 A 
ENDBRANCH  25  26
ENDBRANCH  17  25
BRANCH   9  35
HETATM   35  C9  UNL     1      -2.914   2.598   2.618  1.00  0.00     0.138 C 
BRANCH  35  36
HETATM   36  C10 UNL     1      -1.675   2.327   3.402  1.00  0.00    -0.002 C 
HETATM   37  C11 UNL     1      -0.994   3.357   3.819  1.00  0.00    -0.003 C 
ENDBRANCH  35  36
ENDBRANCH   9  35
BRANCH   1  38
HETATM   38  C1  UNL     1      -4.585  -1.753  -2.908  1.00  0.00     0.419 C 
HETATM   39  F1  UNL     1      -4.960  -0.452  -3.221  1.00  0.00    -0.166 F 
HETATM   40  F2  UNL     1      -5.679  -2.435  -2.451  1.00  0.00    -0.166 F 
HETATM   41  F3  UNL     1      -4.066  -2.412  -3.982  1.00  0.00    -0.166 F 
ENDBRANCH   1  38
TORSDOF 5
