REMARK  4 active torsions:
REMARK  status: ('A' for Active; 'I' for Inactive)
REMARK       I    between atoms: N1_2  and  C3_4 
REMARK    1  A    between atoms: C3_4  and  O2_6 
REMARK    2  A    between atoms: O2_6  and  C4_7 
REMARK    3  A    between atoms: C4_7  and  C5_8 
REMARK    4  A    between atoms: C10_14  and  C14_20 
ROOT
HETATM    1  C5  UNL     1      -0.933   0.343  -1.351  1.00  0.00     0.199 C 
HETATM    2  C6  UNL     1      -1.851   0.666  -2.480  1.00  0.00     0.052 C 
HETATM    3  N2  UNL     1       0.436   0.099  -1.882  1.00  0.00    -0.249 NA
HETATM    4  C7  UNL     1       1.544   0.078  -1.018  1.00  0.00     0.083 A 
HETATM    5  C8  UNL     1       2.695  -0.654  -1.293  1.00  0.00     0.019 A 
HETATM    6  C9  UNL     1       3.752  -0.637  -0.407  1.00  0.00     0.003 A 
HETATM    7  C10 UNL     1       3.707   0.096   0.769  1.00  0.00     0.044 A 
HETATM    8  C11 UNL     1       2.570   0.820   1.041  1.00  0.00     0.007 A 
HETATM    9  C12 UNL     1       1.496   0.806   0.146  1.00  0.00     0.075 A 
HETATM   10  C13 UNL     1       0.292   1.572   0.434  1.00  0.00     0.278 C 
HETATM   11  O3  UNL     1       0.236   2.245   1.502  1.00  0.00    -0.265 OA
HETATM   12  N3  UNL     1      -0.774   1.533  -0.498  1.00  0.00    -0.213 NA
ENDROOT
BRANCH   1  13
HETATM   13  C4  UNL     1      -1.371  -0.807  -0.511  1.00  0.00     0.199 C 
BRANCH  13  14
HETATM   14  O2  UNL     1      -2.614  -0.653   0.033  1.00  0.00    -0.281 OA
BRANCH  14  15
HETATM   15  C3  UNL     1      -3.865  -0.566  -0.493  1.00  0.00     0.365 C 
HETATM   16  N1  UNL     1      -5.046  -0.388   0.278  1.00  0.00    -0.293 N 
HETATM   17  C1  UNL     1      -5.024  -0.281   1.717  1.00  0.00     0.131 C 
HETATM   18  C2  UNL     1      -6.315  -0.311  -0.394  1.00  0.00     0.131 C 
HETATM   19  O1  UNL     1      -3.974  -0.650  -1.740  1.00  0.00    -0.238 OA
ENDBRANCH  14  15
ENDBRANCH  13  14
ENDBRANCH   1  13
BRANCH   7  20
HETATM   20  C14 UNL     1       4.837   0.125   1.733  1.00  0.00     0.341 C 
HETATM   21  F1  UNL     1       4.383  -0.031   3.022  1.00  0.00    -0.193 F 
HETATM   22  F2  UNL     1       5.819  -0.757   1.392  1.00  0.00    -0.193 F 
ENDBRANCH   7  20
TORSDOF 4
