REMARK  5 active torsions:
REMARK  status: ('A' for Active; 'I' for Inactive)
REMARK    1  A    between atoms: O1_2  and  C2_3 
REMARK    2  A    between atoms: C4_5  and  N3_25 
REMARK    3  A    between atoms: C7_8  and  C8_9 
REMARK    4  A    between atoms: C8_9  and  N1_10 
REMARK       I    between atoms: N1_10  and  C9_11 
REMARK    5  A    between atoms: C9_11  and  C10_13 
ROOT
HETATM    1  N1  UNL     1       0.586   1.073  -1.733  1.00  0.00    -0.229 NA
HETATM    2  C9  UNL     1      -0.361   0.950  -0.693  1.00  0.00     0.280 C 
HETATM    3  O2  UNL     1      -0.062   1.314   0.461  1.00  0.00    -0.265 OA
ENDROOT
BRANCH   2   4
HETATM    4  C10 UNL     1      -1.677   0.404  -0.948  1.00  0.00     0.115 A 
HETATM    5  C11 UNL     1      -2.603   0.285   0.079  1.00  0.00     0.011 A 
HETATM    6  C12 UNL     1      -3.852  -0.232  -0.163  1.00  0.00     0.019 A 
HETATM    7  C13 UNL     1      -4.772  -0.347   0.872  1.00  0.00     0.013 A 
HETATM    8  C17 UNL     1      -4.193  -0.639  -1.437  1.00  0.00     0.085 A 
HETATM    9  C14 UNL     1      -6.040  -0.866   0.654  1.00  0.00     0.058 A 
HETATM   10 CL1  UNL     1      -7.105  -0.959   2.034  1.00  0.00    -0.082 Cl
HETATM   11  C15 UNL     1      -6.377  -1.269  -0.606  1.00  0.00     0.013 A 
HETATM   12  C16 UNL     1      -5.456  -1.152  -1.632  1.00  0.00     0.020 A 
HETATM   13  N2  UNL     1      -3.283  -0.514  -2.407  1.00  0.00    -0.208 NA
HETATM   14  C18 UNL     1      -2.047  -0.015  -2.228  1.00  0.00     0.284 A 
HETATM   15  O3  UNL     1      -1.227   0.084  -3.164  1.00  0.00    -0.265 OA
ENDBRANCH   2   4
BRANCH   1  16
HETATM   16  C8  UNL     1       1.916   1.610  -1.539  1.00  0.00     0.157 C 
BRANCH  16  17
HETATM   17  C7  UNL     1       2.681   0.794  -0.545  1.00  0.00     0.025 A 
HETATM   18  C2  UNL     1       3.974   1.141  -0.219  1.00  0.00     0.094 A 
HETATM   19  C3  UNL     1       4.716   0.405   0.702  1.00  0.00     0.047 A 
HETATM   20  C4  UNL     1       4.178  -0.703   1.322  1.00  0.00     0.129 A 
HETATM   21  C5  UNL     1       2.884  -1.041   0.988  1.00  0.00     0.023 A 
HETATM   22  C6  UNL     1       2.145  -0.315   0.077  1.00  0.00     0.001 A 
BRANCH  18  23
HETATM   23  O1  UNL     1       4.512   2.263  -0.850  1.00  0.00    -0.328 OA
HETATM   24  C1  UNL     1       5.831   2.706  -0.587  1.00  0.00     0.181 C 
ENDBRANCH  18  23
BRANCH  20  25
HETATM   25  N3  UNL     1       4.942  -1.452   2.263  1.00  0.00    -0.114 N 
HETATM   26  O4  UNL     1       6.223  -1.071   2.557  1.00  0.00    -0.532 OA
HETATM   27  O5  UNL     1       4.466  -2.454   2.828  1.00  0.00    -0.532 OA
ENDBRANCH  20  25
ENDBRANCH  16  17
ENDBRANCH   1  16
TORSDOF 5
