REMARK  9 active torsions:
REMARK  status: ('A' for Active; 'I' for Inactive)
REMARK    1  A    between atoms: O1_2  and  C2_3 
REMARK    2  A    between atoms: C5_6  and  C6_7 
REMARK    3  A    between atoms: C7_8  and  C8_9 
REMARK    4  A    between atoms: C8_9  and  O3_11 
REMARK    5  A    between atoms: O3_11  and  C9_12 
REMARK    6  A    between atoms: C10_13  and  O4_14 
REMARK    7  A    between atoms: C15_19  and  C16_20 
REMARK    8  A    between atoms: C21_25  and  O5_26 
REMARK    9  A    between atoms: C24_29  and  O6_30 
ROOT
HETATM    1  C9  UNL     1      -2.348  -1.116   0.590  1.00  0.00     0.126 A 
HETATM    2  C10 UNL     1      -2.405  -2.471   0.824  1.00  0.00     0.117 A 
HETATM    3  C12 UNL     1      -3.264  -3.297   0.139  1.00  0.00     0.026 A 
HETATM    4  C13 UNL     1      -4.106  -2.749  -0.824  1.00  0.00     0.002 A 
HETATM    5  C14 UNL     1      -4.035  -1.399  -1.043  1.00  0.00     0.002 A 
HETATM    6  C15 UNL     1      -3.177  -0.572  -0.358  1.00  0.00     0.027 A 
ENDROOT
BRANCH   1   7
HETATM    7  O3  UNL     1      -1.481  -0.292   1.285  1.00  0.00    -0.271 OA
BRANCH   7   8
HETATM    8  C8  UNL     1      -0.135  -0.171   0.847  1.00  0.00     0.300 C 
HETATM    9  O2  UNL     1       0.114  -0.866  -0.170  1.00  0.00    -0.259 OA
BRANCH   8  10
HETATM   10  C7  UNL     1       0.788   0.680   1.549  1.00  0.00     0.069 C 
HETATM   11  C6  UNL     1       1.994   0.935   1.352  1.00  0.00     0.005 C 
BRANCH  11  12
HETATM   12  C5  UNL     1       2.984   0.529   0.390  1.00  0.00     0.002 A 
HETATM   13  C4  UNL     1       2.708  -0.341  -0.621  1.00  0.00     0.002 A 
HETATM   14  C3  UNL     1       3.637  -0.750  -1.560  1.00  0.00     0.026 A 
HETATM   15  C2  UNL     1       4.944  -0.263  -1.499  1.00  0.00     0.116 A 
HETATM   16  C24 UNL     1       5.242   0.628  -0.471  1.00  0.00     0.116 A 
HETATM   17  C23 UNL     1       4.295   1.013   0.444  1.00  0.00     0.026 A 
BRANCH  15  18
HETATM   18  O1  UNL     1       5.932  -0.621  -2.398  1.00  0.00    -0.326 OA
HETATM   19  C1  UNL     1       5.734  -1.506  -3.464  1.00  0.00     0.181 C 
ENDBRANCH  15  18
BRANCH  16  20
HETATM   20  O6  UNL     1       6.556   1.128  -0.398  1.00  0.00    -0.326 OA
HETATM   21  C25 UNL     1       6.893   2.035   0.633  1.00  0.00     0.181 C 
ENDBRANCH  16  20
ENDBRANCH  11  12
ENDBRANCH   8  10
ENDBRANCH   7   8
ENDBRANCH   1   7
BRANCH   2  22
HETATM   22  O4  UNL     1      -1.525  -2.955   1.810  1.00  0.00    -0.326 OA
HETATM   23  C11 UNL     1      -1.566  -4.367   2.070  1.00  0.00     0.181 C 
ENDBRANCH   2  22
BRANCH   6  24
HETATM   24  C16 UNL     1      -3.168   0.863  -0.650  1.00  0.00     0.024 A 
HETATM   25  C17 UNL     1      -2.683   1.354  -1.843  1.00  0.00     0.002 A 
HETATM   26  C18 UNL     1      -2.684   2.707  -2.103  1.00  0.00     0.000 A 
HETATM   27  C19 UNL     1      -3.168   3.599  -1.179  1.00  0.00     0.002 A 
HETATM   28  C20 UNL     1      -3.658   3.135   0.019  1.00  0.00     0.024 A 
HETATM   29  C21 UNL     1      -3.649   1.769   0.263  1.00  0.00     0.094 A 
BRANCH  29  30
HETATM   30  O5  UNL     1      -4.134   1.227   1.463  1.00  0.00    -0.328 OA
HETATM   31  C22 UNL     1      -4.634   2.136   2.420  1.00  0.00     0.181 C 
ENDBRANCH  29  30
ENDBRANCH   6  24
TORSDOF 9
