REMARK  10 active torsions:
REMARK  status: ('A' for Active; 'I' for Inactive)
REMARK    1  A    between atoms: C3_6  and  N4_21 
REMARK    2  A    between atoms: C4_7  and  C5_8 
REMARK    3  A    between atoms: C8_11  and  S1_17 
REMARK    4  A    between atoms: C10_13  and  C11_14 
REMARK    5  A    between atoms: C11_14  and  C12_15 
REMARK    6  A    between atoms: C13_23  and  N7_34 
REMARK    7  A    between atoms: C15_25  and  C16_26 
REMARK    8  A    between atoms: C16_26  and  C17_27 
REMARK    9  A    between atoms: C17_27  and  C18_28 
REMARK   10  A    between atoms: C18_28  and  N6_29 
ROOT
HETATM    1  N1  UNL     1      -2.578  -3.084  -2.579  1.00  0.00    -0.098 NA
HETATM    2  C1  UNL     1      -1.256  -2.514  -2.646  1.00  0.00     0.092 A 
HETATM    3  P1  UNL     1      -0.079  -2.938  -3.838  1.00  0.00     0.115 P 
HETATM    4  N2  UNL     1       1.389  -2.077  -3.630  1.00  0.00    -0.244 NA
HETATM    5  C2  UNL     1       1.408  -1.239  -2.617  1.00  0.00     0.117 A 
HETATM    6  C3  UNL     1       0.395  -0.974  -1.713  1.00  0.00     0.103 A 
HETATM    7  C4  UNL     1      -0.849  -1.568  -1.728  1.00  0.00     0.034 A 
ENDROOT
BRANCH   6   8
HETATM    8  N4  UNL     1       0.777  -0.045  -0.677  1.00  0.00    -0.231 N 
HETATM    9  N5  UNL     1       0.661   1.248  -0.725  1.00  0.00    -0.148 NA
HETATM   10  C13 UNL     1       1.110   1.828   0.397  1.00  0.00     0.161 A 
HETATM   11  C14 UNL     1       1.540   0.786   1.199  1.00  0.00     0.053 A 
HETATM   12  C15 UNL     1       1.328  -0.390   0.518  1.00  0.00     0.064 A 
BRANCH  10  13
HETATM   13  N7  UNL     1       1.157   3.208   0.737  1.00  0.00    -0.327 N 
HETATM   14  C23 UNL     1       0.713   4.255  -0.153  1.00  0.00     0.135 C 
HETATM   15  C24 UNL     1       1.779   5.328  -0.123  1.00  0.00     0.167 C 
HETATM   16  O3  UNL     1       1.857   5.867   1.131  1.00  0.00    -0.350 OA
HETATM   17  C25 UNL     1       1.373   5.111   2.163  1.00  0.00     0.167 C 
HETATM   18  C26 UNL     1       1.667   3.627   2.027  1.00  0.00     0.135 C 
ENDBRANCH  10  13
BRANCH  12  19
HETATM   19  C16 UNL     1       1.609  -1.796   0.906  1.00  0.00     0.048 C 
BRANCH  19  20
HETATM   20  C17 UNL     1       2.221  -1.910   2.263  1.00  0.00     0.042 C 
BRANCH  20  21
HETATM   21  C18 UNL     1       3.538  -1.147   2.289  1.00  0.00     0.251 C 
BRANCH  21  22
HETATM   22  N6  UNL     1       4.474  -1.664   1.322  1.00  0.00     0.137 N 
HETATM   23  C19 UNL     1       4.082  -1.429  -0.046  1.00  0.00     0.250 C 
HETATM   24  C20 UNL     1       4.533  -2.600  -0.858  1.00  0.00     0.037 C 
HETATM   25  C21 UNL     1       4.909  -3.667   0.115  1.00  0.00     0.037 C 
HETATM   26  C22 UNL     1       4.765  -3.054   1.467  1.00  0.00     0.250 C 
ENDBRANCH  21  22
ENDBRANCH  20  21
ENDBRANCH  19  20
ENDBRANCH  12  19
ENDBRANCH   6   8
BRANCH   7  27
HETATM   27  C5  UNL     1      -1.803  -1.179  -0.668  1.00  0.00    -0.001 A 
HETATM   28  C6  UNL     1      -1.750  -1.728   0.596  1.00  0.00     0.001 A 
HETATM   29  C7  UNL     1      -2.607  -1.314   1.590  1.00  0.00     0.013 A 
HETATM   30  C8  UNL     1      -3.551  -0.334   1.363  1.00  0.00     0.106 A 
HETATM   31  C9  UNL     1      -3.613   0.219   0.108  1.00  0.00     0.009 A 
HETATM   32  C10 UNL     1      -2.742  -0.203  -0.907  1.00  0.00    -0.020 A 
BRANCH  30  33
HETATM   33  S1  UNL     1      -4.640   0.197   2.642  1.00  0.00     0.302 S 
HETATM   34  N3  UNL     1      -3.896   1.524   3.439  1.00  0.00    -0.043 N 
HETATM   35  O1  UNL     1      -5.953   0.672   2.086  1.00  0.00    -0.197 OA
HETATM   36  O2  UNL     1      -4.836  -0.952   3.590  1.00  0.00    -0.197 OA
ENDBRANCH  30  33
BRANCH  32  37
HETATM   37  C11 UNL     1      -2.942   0.418  -2.238  1.00  0.00     0.044 C 
BRANCH  37  38
HETATM   38  C12 UNL     1      -1.907   1.433  -2.592  1.00  0.00     0.100 C 
HETATM   39 CL1  UNL     1      -2.280   2.087  -4.211  1.00  0.00    -0.114 Cl
ENDBRANCH  37  38
ENDBRANCH  32  37
ENDBRANCH   7  27
TORSDOF 10
