REMARK  3 active torsions:
REMARK  status: ('A' for Active; 'I' for Inactive)
REMARK       I    between atoms: N1_2  and  C2_3 
REMARK    1  A    between atoms: C2_3  and  C3_5 
REMARK    2  A    between atoms: N3_7  and  C12_16 
REMARK    3  A    between atoms: C15_19  and  C18_22 
ROOT
HETATM    1  C3  UNL     1      -2.993   1.748   1.699  1.00  0.00     0.142 C 
HETATM    2  N2  UNL     1      -1.773   1.885   1.381  1.00  0.00    -0.165 NA
HETATM    3  N3  UNL     1      -1.368   0.873   0.436  1.00  0.00    -0.234 N 
HETATM    4  C4  UNL     1      -2.566   0.427  -0.146  1.00  0.00     0.067 C 
HETATM    5  C5  UNL     1      -3.551   0.565   0.951  1.00  0.00     0.098 C 
HETATM    6  C6  UNL     1      -2.647  -0.693  -1.028  1.00  0.00     0.014 A 
HETATM    7  C7  UNL     1      -1.865  -0.787  -2.155  1.00  0.00     0.001 A 
HETATM    8  C8  UNL     1      -1.896  -1.823  -3.032  1.00  0.00     0.000 A 
HETATM    9  C9  UNL     1      -2.742  -2.869  -2.828  1.00  0.00     0.000 A 
HETATM   10  C10 UNL     1      -3.554  -2.838  -1.717  1.00  0.00     0.000 A 
HETATM   11  C11 UNL     1      -3.514  -1.784  -0.836  1.00  0.00     0.001 A 
ENDROOT
BRANCH   3  12
HETATM   12  C12 UNL     1      -0.039   0.475   0.209  1.00  0.00     0.083 A 
HETATM   13  C13 UNL     1       0.987   1.247   0.774  1.00  0.00     0.019 A 
HETATM   14  C14 UNL     1       2.319   0.928   0.621  1.00  0.00     0.002 A 
HETATM   15  C15 UNL     1       2.689  -0.178  -0.106  1.00  0.00     0.000 A 
HETATM   16  C16 UNL     1       1.689  -0.948  -0.669  1.00  0.00     0.002 A 
HETATM   17  C17 UNL     1       0.358  -0.616  -0.506  1.00  0.00     0.019 A 
BRANCH  15  18
HETATM   18  C18 UNL     1       4.110  -0.497  -0.256  1.00  0.00     0.003 A 
HETATM   19  C19 UNL     1       5.033  -0.209   0.715  1.00  0.00     0.021 A 
HETATM   20  C20 UNL     1       6.345  -0.533   0.515  1.00  0.00     0.099 A 
HETATM   21  N4  UNL     1       6.731  -1.126  -0.619  1.00  0.00    -0.248 NA
HETATM   22  C21 UNL     1       5.830  -1.410  -1.574  1.00  0.00     0.059 A 
HETATM   23  C22 UNL     1       6.215  -2.076  -2.867  1.00  0.00     0.052 C 
HETATM   24  C23 UNL     1       4.483  -1.103  -1.422  1.00  0.00     0.015 A 
ENDBRANCH  15  18
ENDBRANCH   3  12
BRANCH   1  25
HETATM   25  C2  UNL     1      -3.821   2.531   2.610  1.00  0.00     0.291 C 
HETATM   26  N1  UNL     1      -5.183   2.263   2.875  1.00  0.00    -0.231 NA
HETATM   27  C1  UNL     1      -5.992   3.051   3.783  1.00  0.00     0.155 C 
HETATM   28  O1  UNL     1      -3.285   3.498   3.191  1.00  0.00    -0.264 OA
ENDBRANCH   1  25
TORSDOF 3
