REMARK  4 active torsions:
REMARK  status: ('A' for Active; 'I' for Inactive)
REMARK    1  A    between atoms: O1_2  and  C2_3 
REMARK    2  A    between atoms: C4_5  and  C9_11 
REMARK    3  A    between atoms: C7_8  and  O2_9 
REMARK    4  A    between atoms: C11_13  and  C12_14 
ROOT
HETATM    1  C2  UNL     1       1.834   0.798  -0.182  1.00  0.00     0.116 A 
HETATM    2  C3  UNL     1       0.470   0.816   0.091  1.00  0.00     0.022 A 
HETATM    3  C4  UNL     1      -0.210  -0.327   0.376  1.00  0.00    -0.020 A 
HETATM    4  C5  UNL     1       0.524  -1.515   0.380  1.00  0.00    -0.002 A 
HETATM    5  C6  UNL     1       1.863  -1.542   0.114  1.00  0.00     0.026 A 
HETATM    6  C7  UNL     1       2.527  -0.392  -0.168  1.00  0.00     0.116 A 
ENDROOT
BRANCH   3   7
HETATM    7  C9  UNL     1      -1.640  -0.434   0.678  1.00  0.00     0.033 A 
HETATM    8  C10 UNL     1      -2.335  -1.494  -0.240  1.00  0.00     0.016 A 
HETATM    9  C11 UNL     1      -2.691   0.027  -0.230  1.00  0.00     0.092 A 
BRANCH   9  10
HETATM   10  C12 UNL     1      -4.031   0.245   0.374  1.00  0.00     0.185 C 
HETATM   11  O3  UNL     1      -5.050   0.682  -0.459  1.00  0.00    -0.647 OA
HETATM   12  O4  UNL     1      -4.303   0.061   1.584  1.00  0.00    -0.647 OA
ENDBRANCH   9  10
ENDBRANCH   3   7
BRANCH   1  13
HETATM   13  O1  UNL     1       2.552   1.944  -0.474  1.00  0.00    -0.326 OA
HETATM   14  C1  UNL     1       1.992   3.236  -0.527  1.00  0.00     0.181 C 
ENDBRANCH   1  13
BRANCH   6  15
HETATM   15  O2  UNL     1       3.907  -0.437  -0.441  1.00  0.00    -0.326 OA
HETATM   16  C8  UNL     1       4.592  -1.671  -0.420  1.00  0.00     0.181 C 
ENDBRANCH   6  15
TORSDOF 4
