REMARK  1 active torsions:
REMARK  status: ('A' for Active; 'I' for Inactive)
REMARK    1  A    between atoms: C5_7  and  N3_8 
ROOT
HETATM    1  N1  UNL     1       0.513   2.078   0.323  1.00  0.00    -0.078 NA
HETATM    2  C1  UNL     1      -0.343   0.961   0.093  1.00  0.00     0.173 A 
HETATM    3  N2  UNL     1      -1.692   1.133  -0.005  1.00  0.00    -0.228 NA
HETATM    4  C2  UNL     1      -2.454   0.048  -0.221  1.00  0.00     0.100 A 
HETATM    5  C3  UNL     1      -1.930  -1.221  -0.346  1.00  0.00     0.022 A 
HETATM    6  C4  UNL     1      -0.566  -1.379  -0.244  1.00  0.00     0.028 A 
HETATM    7  C5  UNL     1       0.239  -0.281  -0.023  1.00  0.00     0.157 A 
ENDROOT
BRANCH   7   8
HETATM    8  N3  UNL     1       1.659  -0.379   0.091  1.00  0.00    -0.111 N 
HETATM    9  O1  UNL     1       2.231  -1.523   0.625  1.00  0.00    -0.532 OA
HETATM   10  O2  UNL     1       2.342   0.563  -0.292  1.00  0.00    -0.532 OA
ENDBRANCH   7   8
TORSDOF 1
