REMARK  5 active torsions:
REMARK  status: ('A' for Active; 'I' for Inactive)
REMARK    1  A    between atoms: C3_3  and  C4_4 
REMARK    2  A    between atoms: C9_9  and  O1_10 
REMARK    3  A    between atoms: C12_15  and  C13_16 
REMARK    4  A    between atoms: C18_21  and  O3_22 
REMARK    5  A    between atoms: O3_22  and  C19_23 
ROOT
HETATM    1  C1  UNL     1       0.422  -0.680  -1.794  1.00  0.00    -0.002 C 
HETATM    2  C2  UNL     1       0.395  -0.387  -0.523  1.00  0.00     0.008 C 
HETATM    3  C3  UNL     1       1.506  -0.295   0.406  1.00  0.00     0.083 C 
HETATM    4  N1  UNL     1       1.050  -0.623   1.608  1.00  0.00    -0.211 NA
HETATM    5  C11 UNL     1      -0.336  -0.936   1.539  1.00  0.00     0.264 C 
HETATM    6  O2  UNL     1      -1.018  -1.701   2.248  1.00  0.00    -0.270 OA
HETATM    7  C12 UNL     1      -0.799  -0.090   0.363  1.00  0.00     0.129 C 
ENDROOT
BRANCH   7   8
HETATM    8  C13 UNL     1      -2.029  -0.680  -0.228  1.00  0.00     0.013 A 
HETATM    9  C14 UNL     1      -2.130  -2.027  -0.459  1.00  0.00    -0.002 A 
HETATM   10  C15 UNL     1      -3.295  -2.514  -1.009  1.00  0.00    -0.000 A 
HETATM   11  C16 UNL     1      -4.364  -1.701  -1.336  1.00  0.00     0.002 A 
HETATM   12  C17 UNL     1      -4.222  -0.358  -1.089  1.00  0.00     0.025 A 
HETATM   13  C18 UNL     1      -3.066   0.175  -0.536  1.00  0.00     0.100 A 
BRANCH  13  14
HETATM   14  O3  UNL     1      -2.944   1.538  -0.294  1.00  0.00    -0.277 OA
BRANCH  14  15
HETATM   15  C19 UNL     1      -3.362   1.999   0.962  1.00  0.00     0.277 C 
HETATM   16  C20 UNL     1      -3.268   3.449   1.313  1.00  0.00     0.107 C 
HETATM   17  O4  UNL     1      -3.814   1.201   1.795  1.00  0.00    -0.264 OA
ENDBRANCH  14  15
ENDBRANCH  13  14
ENDBRANCH   7   8
BRANCH   3  18
HETATM   18  C4  UNL     1       2.896   0.056   0.191  1.00  0.00     0.040 A 
HETATM   19  C5  UNL     1       3.780  -0.026   1.260  1.00  0.00     0.004 A 
HETATM   20  C6  UNL     1       5.119   0.256   1.173  1.00  0.00     0.000 A 
HETATM   21  C7  UNL     1       5.613   0.648  -0.067  1.00  0.00     0.002 A 
HETATM   22  C8  UNL     1       4.740   0.732  -1.130  1.00  0.00     0.024 A 
HETATM   23  C9  UNL     1       3.378   0.438  -1.011  1.00  0.00     0.096 A 
BRANCH  23  24
HETATM   24  O1  UNL     1       2.609   0.564  -2.154  1.00  0.00    -0.328 OA
HETATM   25  C10 UNL     1       3.140   0.964  -3.392  1.00  0.00     0.181 C 
ENDBRANCH  23  24
ENDBRANCH   3  18
TORSDOF 5
