REMARK  20 active torsions:
REMARK  status: ('A' for Active; 'I' for Inactive)
REMARK    1  A    between atoms: C2_2  and  C3_3 
REMARK    2  A    between atoms: C2_2  and  C28_35 
REMARK    3  A    between atoms: C5_6  and  C6_7 
REMARK    4  A    between atoms: C6_7  and  C7_9 
REMARK    5  A    between atoms: N2_15  and  C13_16 
REMARK    6  A    between atoms: C13_16  and  C14_17 
REMARK    7  A    between atoms: C14_17  and  S1_18 
REMARK    8  A    between atoms: S1_18  and  C15_19 
REMARK    9  A    between atoms: C15_19  and  C16_20 
REMARK   10  A    between atoms: C16_20  and  N3_21 
REMARK   11  A    between atoms: C20_25  and  C21_26 
REMARK       I    between atoms: C21_26  and  N4_28 
REMARK   12  A    between atoms: N4_28  and  C22_29 
REMARK   13  A    between atoms: C28_35  and  C29_37 
REMARK   14  A    between atoms: C29_37  and  N5_39 
REMARK       I    between atoms: N5_39  and  C31_40 
REMARK   15  A    between atoms: C31_40  and  C32_42 
REMARK   16  A    between atoms: C32_42  and  C33_43 
REMARK   17  A    between atoms: C32_42  and  S2_55 
REMARK   18  A    between atoms: C33_43  and  O5_44 
REMARK   19  A    between atoms: O5_44  and  C34_45 
REMARK   20  A    between atoms: C34_45  and  N6_46 
ROOT
HETATM    1  C3  UNL     1      -0.065  -3.763   2.120  1.00  0.00     0.000 C 
HETATM    2  C4  UNL     1      -0.847  -2.867   1.301  1.00  0.00     0.082 A 
HETATM    3  N1  UNL     1      -1.646  -1.877   1.805  1.00  0.00    -0.242 NA
HETATM    4  C5  UNL     1      -2.309  -1.256   0.818  1.00  0.00     0.120 A 
HETATM    5  C19 UNL     1      -1.906  -1.882  -0.357  1.00  0.00     0.029 A 
HETATM    6  C20 UNL     1      -1.008  -2.872  -0.079  1.00  0.00     0.077 A 
ENDROOT
BRANCH   1   7
HETATM    7  C2  UNL     1       1.366  -3.733   2.127  1.00  0.00     0.083 C 
HETATM    8  C1  UNL     1       1.988  -4.790   3.064  1.00  0.00     0.013 C 
BRANCH   7   9
HETATM    9  C28 UNL     1       2.040  -2.470   2.282  1.00  0.00     0.176 C 
HETATM   10  O3  UNL     1       2.979  -2.289   3.081  1.00  0.00    -0.294 OA
BRANCH   9  11
HETATM   11  C29 UNL     1       1.656  -1.258   1.468  1.00  0.00     0.164 C 
HETATM   12  C30 UNL     1       1.031  -0.306   2.506  1.00  0.00     0.035 C 
BRANCH  11  13
HETATM   13  N5  UNL     1       2.977  -0.672   1.095  1.00  0.00    -0.232 NA
HETATM   14  C31 UNL     1       3.021   0.116  -0.070  1.00  0.00     0.269 C 
HETATM   15  O4  UNL     1       1.980   0.298  -0.735  1.00  0.00    -0.269 OA
BRANCH  14  16
HETATM   16  C32 UNL     1       4.280   0.753  -0.555  1.00  0.00     0.217 C 
BRANCH  16  17
HETATM   17  C33 UNL     1       4.011   1.592  -1.802  1.00  0.00     0.170 C 
BRANCH  17  18
HETATM   18  O5  UNL     1       3.085   2.592  -1.501  1.00  0.00    -0.324 OA
BRANCH  18  19
HETATM   19  C34 UNL     1       3.498   3.439  -0.504  1.00  0.00     0.397 C 
BRANCH  19  20
HETATM   20  N6  UNL     1       4.713   4.147  -0.808  1.00  0.00     0.167 N 
HETATM   21  C35 UNL     1       5.769   3.169  -1.048  1.00  0.00     0.288 C 
HETATM   22  C36 UNL     1       6.867   3.280  -0.015  1.00  0.00     0.286 C 
HETATM   23  N7  UNL     1       6.502   2.548   1.173  1.00  0.00     0.141 N 
HETATM   24  C37 UNL     1       7.600   2.679   2.107  1.00  0.00     0.285 C 
HETATM   25  C38 UNL     1       5.282   3.059   1.708  1.00  0.00     0.252 C 
HETATM   26  C39 UNL     1       5.109   4.532   1.604  1.00  0.00     0.069 C 
HETATM   27  C40 UNL     1       5.071   5.084   0.216  1.00  0.00     0.225 C 
HETATM   28  C41 UNL     1       6.399   5.723  -0.186  1.00  0.00     0.035 C 
ENDBRANCH  19  20
ENDBRANCH  18  19
ENDBRANCH  17  18
ENDBRANCH  16  17
BRANCH  16  29
HETATM   29  S2  UNL     1       5.419  -0.526  -1.102  1.00  0.00     0.181 S 
HETATM   30  C42 UNL     1       4.746  -1.490  -2.413  1.00  0.00     0.140 C 
HETATM   31  O6  UNL     1       6.705   0.109  -1.540  1.00  0.00    -0.225 OA
HETATM   32  O7  UNL     1       5.666  -1.418   0.077  1.00  0.00    -0.225 OA
ENDBRANCH  16  29
ENDBRANCH  14  16
ENDBRANCH  11  13
ENDBRANCH   9  11
ENDBRANCH   7   9
ENDBRANCH   1   7
BRANCH   6  33
HETATM   33  C21 UNL     1      -0.296  -3.774  -0.973  1.00  0.00     0.281 C 
HETATM   34  O2  UNL     1      -0.598  -3.809  -2.183  1.00  0.00    -0.265 OA
HETATM   35  N4  UNL     1       0.745  -4.631  -0.528  1.00  0.00    -0.208 NA
BRANCH  35  36
HETATM   36  C22 UNL     1       1.459  -5.509  -1.375  1.00  0.00     0.085 A 
HETATM   37  C23 UNL     1       1.143  -5.639  -2.734  1.00  0.00     0.019 A 
HETATM   38  C24 UNL     1       1.887  -6.508  -3.509  1.00  0.00     0.002 A 
HETATM   39  C25 UNL     1       2.923  -7.255  -3.023  1.00  0.00     0.000 A 
HETATM   40  C26 UNL     1       3.248  -7.139  -1.685  1.00  0.00     0.002 A 
HETATM   41  C27 UNL     1       2.493  -6.257  -0.896  1.00  0.00     0.019 A 
ENDBRANCH  35  36
ENDBRANCH   6  33
BRANCH   4  42
HETATM   42  C6  UNL     1      -3.252  -0.154   0.939  1.00  0.00     0.213 C 
HETATM   43  O1  UNL     1      -3.229   0.580   1.971  1.00  0.00    -0.285 OA
BRANCH  42  44
HETATM   44  C7  UNL     1      -4.215   0.107  -0.110  1.00  0.00     0.042 A 
HETATM   45  C8  UNL     1      -4.159  -0.349  -1.398  1.00  0.00     0.005 A 
HETATM   46  C9  UNL     1      -5.135  -0.078  -2.366  1.00  0.00     0.019 A 
HETATM   47  C10 UNL     1      -6.246   0.701  -2.029  1.00  0.00     0.076 A 
HETATM   48  C11 UNL     1      -6.266   1.140  -0.732  1.00  0.00     0.076 A 
HETATM   49  N2  UNL     1      -7.347   1.516  -1.556  1.00  0.00    -0.324 N 
HETATM   50  C12 UNL     1      -5.337   0.898   0.236  1.00  0.00     0.022 A 
BRANCH  49  51
HETATM   51  C13 UNL     1      -8.605   2.220  -1.712  1.00  0.00     0.118 C 
BRANCH  51  52
HETATM   52  C14 UNL     1      -8.363   3.689  -1.375  1.00  0.00     0.082 C 
BRANCH  52  53
HETATM   53  S1  UNL     1      -7.771   3.710   0.356  1.00  0.00    -0.136 SA
BRANCH  53  54
HETATM   54  C15 UNL     1      -7.444   5.416   0.902  1.00  0.00     0.093 C 
BRANCH  54  55
HETATM   55  C16 UNL     1      -8.771   6.162   0.942  1.00  0.00     0.262 C 
BRANCH  55  56
HETATM   56  N3  UNL     1      -9.700   5.528   1.873  1.00  0.00     0.142 N 
HETATM   57  C17 UNL     1      -9.268   5.670   3.254  1.00  0.00     0.285 C 
HETATM   58  C18 UNL     1      -9.872   4.116   1.572  1.00  0.00     0.285 C 
ENDBRANCH  55  56
ENDBRANCH  54  55
ENDBRANCH  53  54
ENDBRANCH  52  53
ENDBRANCH  51  52
ENDBRANCH  49  51
ENDBRANCH  42  44
ENDBRANCH   4  42
TORSDOF 20
