REMARK  12 active torsions:
REMARK  status: ('A' for Active; 'I' for Inactive)
REMARK    1  A    between atoms: C2_2  and  C3_3 
REMARK    2  A    between atoms: C3_3  and  C4_4 
REMARK    3  A    between atoms: C4_4  and  C5_5 
REMARK    4  A    between atoms: C4_4  and  S1_10 
REMARK    5  A    between atoms: C5_5  and  C6_6 
REMARK    6  A    between atoms: C6_6  and  C7_7 
REMARK    7  A    between atoms: S1_10  and  N1_13 
REMARK       I    between atoms: N2_16  and  C10_17 
REMARK    8  A    between atoms: C10_17  and  C11_19 
REMARK    9  A    between atoms: C11_19  and  C12_20 
REMARK   10  A    between atoms: C16_24  and  C17_25 
REMARK       I    between atoms: N3_28  and  C20_29 
REMARK   11  A    between atoms: C20_29  and  C21_31 
REMARK   12  A    between atoms: C26_36  and  C27_37 
ROOT
HETATM    1  C11 UNL     1       0.740  -0.071   0.447  1.00  0.00     0.090 C 
HETATM    2  C32 UNL     1       1.656  -0.613   1.524  1.00  0.00     0.013 C 
HETATM    3  C33 UNL     1       0.750  -1.844   1.589  1.00  0.00     0.002 C 
HETATM    4  C34 UNL     1       0.266  -1.465   0.194  1.00  0.00     0.013 C 
ENDROOT
BRANCH   1   5
HETATM    5  C10 UNL     1       1.442   0.470  -0.750  1.00  0.00     0.236 C 
HETATM    6  N2  UNL     1       2.474  -0.241  -1.382  1.00  0.00    -0.317 N 
HETATM    7  C9  UNL     1       2.882  -1.521  -0.887  1.00  0.00     0.123 C 
HETATM    8  C35 UNL     1       3.130   0.316  -2.539  1.00  0.00     0.123 C 
HETATM    9  C8  UNL     1       4.351  -1.766  -0.966  1.00  0.00     0.112 C 
HETATM   10  N1  UNL     1       5.001  -1.087  -2.040  1.00  0.00    -0.176 NA
HETATM   11  C36 UNL     1       4.628   0.277  -2.236  1.00  0.00     0.112 C 
HETATM   12  O5  UNL     1       1.079   1.593  -1.182  1.00  0.00    -0.272 OA
BRANCH  10  13
HETATM   13  S1  UNL     1       6.702  -1.330  -2.059  1.00  0.00     0.226 S 
HETATM   14  O3  UNL     1       7.292  -0.611  -3.245  1.00  0.00    -0.210 OA
HETATM   15  O4  UNL     1       7.056  -2.782  -2.180  1.00  0.00    -0.210 OA
BRANCH  13  16
HETATM   16  C4  UNL     1       7.473  -0.712  -0.586  1.00  0.00     0.128 C 
BRANCH  16  17
HETATM   17  C3  UNL     1       6.884  -1.452   0.594  1.00  0.00     0.043 C 
BRANCH  17  18
HETATM   18  C2  UNL     1       7.492  -1.093   1.882  1.00  0.00    -0.025 C 
HETATM   19  C1  UNL     1       8.458  -0.224   2.072  1.00  0.00    -0.005 C 
ENDBRANCH  17  18
ENDBRANCH  16  17
BRANCH  16  20
HETATM   20  C5  UNL     1       8.947  -1.046  -0.649  1.00  0.00     0.029 C 
BRANCH  20  21
HETATM   21  C6  UNL     1       9.081  -2.544  -0.825  1.00  0.00     0.099 C 
BRANCH  21  22
HETATM   22  C7  UNL     1      10.512  -2.942  -0.895  1.00  0.00     0.185 C 
HETATM   23  O1  UNL     1      10.760  -4.170  -1.041  1.00  0.00    -0.647 OA
HETATM   24  O2  UNL     1      11.497  -1.968  -0.799  1.00  0.00    -0.647 OA
ENDBRANCH  21  22
ENDBRANCH  20  21
ENDBRANCH  16  20
ENDBRANCH  13  16
ENDBRANCH  10  13
ENDBRANCH   1   5
BRANCH   1  25
HETATM   25  C12 UNL     1      -0.346   0.806   0.966  1.00  0.00    -0.019 A 
HETATM   26  C13 UNL     1      -0.304   1.320   2.242  1.00  0.00    -0.004 A 
HETATM   27  C14 UNL     1      -1.331   2.146   2.697  1.00  0.00    -0.001 A 
HETATM   28  C15 UNL     1      -2.388   2.447   1.865  1.00  0.00    -0.005 A 
HETATM   29  C16 UNL     1      -2.437   1.938   0.592  1.00  0.00    -0.027 A 
HETATM   30  C30 UNL     1      -1.414   1.126   0.166  1.00  0.00    -0.029 A 
HETATM   31  C31 UNL     1      -1.455   0.551  -1.231  1.00  0.00     0.030 C 
BRANCH  29  32
HETATM   32  C17 UNL     1      -3.539   2.215  -0.356  1.00  0.00     0.026 C 
HETATM   33  C18 UNL     1      -4.533   3.172   0.217  1.00  0.00     0.029 C 
HETATM   34  C19 UNL     1      -5.857   3.142  -0.558  1.00  0.00     0.105 C 
HETATM   35  N3  UNL     1      -6.365   1.821  -0.398  1.00  0.00    -0.317 N 
HETATM   36  C20 UNL     1      -7.668   1.615   0.077  1.00  0.00     0.257 C 
HETATM   37  C28 UNL     1      -5.528   0.716  -0.730  1.00  0.00     0.105 C 
HETATM   38  O6  UNL     1      -8.384   2.630   0.363  1.00  0.00    -0.267 OA
HETATM   39  C29 UNL     1      -4.106   1.005  -0.993  1.00  0.00     0.029 C 
BRANCH  36  40
HETATM   40  C21 UNL     1      -8.265   0.306   0.270  1.00  0.00     0.062 A 
HETATM   41  C22 UNL     1      -8.953  -0.267  -0.773  1.00  0.00     0.005 A 
HETATM   42  C23 UNL     1      -9.551  -1.509  -0.672  1.00  0.00     0.000 A 
HETATM   43  C24 UNL     1      -9.465  -2.212   0.506  1.00  0.00     0.000 A 
HETATM   44  C25 UNL     1      -8.781  -1.655   1.563  1.00  0.00     0.006 A 
HETATM   45  C26 UNL     1      -8.180  -0.396   1.447  1.00  0.00     0.069 A 
BRANCH  45  46
HETATM   46  C27 UNL     1      -7.463   0.186   2.559  1.00  0.00     0.211 C 
HETATM   47  O7  UNL     1      -7.389  -0.463   3.637  1.00  0.00    -0.644 OA
HETATM   48  O8  UNL     1      -6.851   1.423   2.501  1.00  0.00    -0.644 OA
ENDBRANCH  45  46
ENDBRANCH  36  40
ENDBRANCH  29  32
ENDBRANCH   1  25
TORSDOF 12
