REMARK  13 active torsions:
REMARK  status: ('A' for Active; 'I' for Inactive)
REMARK       I    between atoms: C2_2  and  N1_4 
REMARK    1  A    between atoms: N1_4  and  C3_5 
REMARK    2  A    between atoms: C3_5  and  C4_6 
REMARK    3  A    between atoms: C4_6  and  C5_7 
REMARK    4  A    between atoms: C5_7  and  C6_8 
REMARK    5  A    between atoms: C6_8  and  N2_9 
REMARK       I    between atoms: N2_9  and  C7_10 
REMARK    6  A    between atoms: C7_10  and  C8_12 
REMARK    7  A    between atoms: C12_16  and  C13_17 
REMARK    8  A    between atoms: C13_17  and  C14_18 
REMARK    9  A    between atoms: N3_21  and  C17_22 
REMARK   10  A    between atoms: C17_22  and  C18_23 
REMARK       I    between atoms: C18_23  and  N4_25 
REMARK   11  A    between atoms: N4_25  and  C19_26 
REMARK   12  A    between atoms: C26_33  and  N5_34 
REMARK   13  A    between atoms: N5_34  and  C27_35 
ROOT
HETATM    1  C14 UNL     1      -0.590   2.140   0.384  1.00  0.00     0.010 C 
HETATM    2  C15 UNL     1      -1.416   1.812  -0.867  1.00  0.00     0.036 C 
HETATM    3  C16 UNL     1      -1.071   0.384  -1.237  1.00  0.00     0.251 C 
HETATM    4  N3  UNL     1      -1.925  -0.585  -0.638  1.00  0.00     0.149 N 
HETATM    5  C25 UNL     1      -2.119  -0.422   0.777  1.00  0.00     0.275 C 
HETATM    6  C26 UNL     1      -2.600   0.917   1.188  1.00  0.00     0.138 C 
HETATM    7  C31 UNL     1      -1.504   1.878   1.565  1.00  0.00     0.027 C 
ENDROOT
BRANCH   1   8
HETATM    8  C13 UNL     1       0.593   1.224   0.507  1.00  0.00     0.046 C 
BRANCH   8   9
HETATM    9  C12 UNL     1       1.491   1.353  -0.682  1.00  0.00     0.059 A 
HETATM   10  C11 UNL     1       1.145   2.234  -1.678  1.00  0.00     0.015 A 
HETATM   11  C10 UNL     1       1.968   2.351  -2.768  1.00  0.00     0.003 A 
HETATM   12  C9  UNL     1       3.105   1.566  -2.796  1.00  0.00     0.024 A 
HETATM   13  C8  UNL     1       3.428   0.691  -1.787  1.00  0.00     0.138 A 
HETATM   14  N8  UNL     1       2.595   0.609  -0.740  1.00  0.00    -0.245 NA
BRANCH  13  15
HETATM   15  C7  UNL     1       4.641  -0.089  -1.907  1.00  0.00     0.293 C 
HETATM   16  N2  UNL     1       5.047  -1.021  -0.900  1.00  0.00    -0.233 NA
HETATM   17  O2  UNL     1       5.398   0.015  -2.903  1.00  0.00    -0.264 OA
BRANCH  16  18
HETATM   18  C6  UNL     1       6.260  -1.801  -1.020  1.00  0.00     0.129 C 
BRANCH  18  19
HETATM   19  C5  UNL     1       7.497  -0.959  -1.124  1.00  0.00     0.029 C 
BRANCH  19  20
HETATM   20  C4  UNL     1       7.705  -0.065   0.082  1.00  0.00     0.029 C 
BRANCH  20  21
HETATM   21  C3  UNL     1       7.834  -0.901   1.355  1.00  0.00     0.129 C 
BRANCH  21  22
HETATM   22  N1  UNL     1       8.984  -1.770   1.164  1.00  0.00    -0.238 NA
HETATM   23  C2  UNL     1      10.292  -1.271   0.933  1.00  0.00     0.252 C 
HETATM   24  C1  UNL     1      11.435  -2.212   0.744  1.00  0.00     0.100 C 
HETATM   25  O1  UNL     1      10.431  -0.021   0.899  1.00  0.00    -0.271 OA
ENDBRANCH  21  22
ENDBRANCH  20  21
ENDBRANCH  19  20
ENDBRANCH  18  19
ENDBRANCH  16  18
ENDBRANCH  13  15
ENDBRANCH   8   9
ENDBRANCH   1   8
BRANCH   6  26
HETATM   26  N5  UNL     1      -3.569   1.498   0.290  1.00  0.00    -0.253 NA
BRANCH  26  27
HETATM   27  C27 UNL     1      -4.100   2.801   0.600  1.00  0.00     0.161 A 
HETATM   28  C28 UNL     1      -3.705   3.492   1.723  1.00  0.00     0.059 A 
HETATM   29  C29 UNL     1      -4.229   4.738   1.997  1.00  0.00     0.104 A 
HETATM   30  N6  UNL     1      -5.129   5.259   1.148  1.00  0.00    -0.223 NA
HETATM   31  C30 UNL     1      -5.534   4.608   0.044  1.00  0.00     0.200 A 
HETATM   32  N7  UNL     1      -5.005   3.396  -0.195  1.00  0.00    -0.205 NA
ENDBRANCH  26  27
ENDBRANCH   6  26
BRANCH   4  33
HETATM   33  C17 UNL     1      -3.160  -0.797  -1.355  1.00  0.00     0.339 C 
BRANCH  33  34
HETATM   34  C18 UNL     1      -3.973  -1.812  -0.664  1.00  0.00     0.290 C 
HETATM   35  O3  UNL     1      -3.559  -2.353   0.389  1.00  0.00    -0.268 OA
HETATM   36  N4  UNL     1      -5.237  -2.197  -1.173  1.00  0.00    -0.210 NA
BRANCH  36  37
HETATM   37  C19 UNL     1      -6.048  -3.164  -0.544  1.00  0.00     0.084 A 
HETATM   38  C20 UNL     1      -5.717  -3.831   0.609  1.00  0.00     0.019 A 
HETATM   39  C21 UNL     1      -6.538  -4.767   1.189  1.00  0.00     0.002 A 
HETATM   40  C22 UNL     1      -7.751  -5.062   0.602  1.00  0.00     0.000 A 
HETATM   41  C23 UNL     1      -8.098  -4.404  -0.553  1.00  0.00     0.002 A 
HETATM   42  C24 UNL     1      -7.272  -3.463  -1.135  1.00  0.00     0.019 A 
ENDBRANCH  36  37
ENDBRANCH  33  34
ENDBRANCH   4  33
TORSDOF 13
