REMARK  5 active torsions:
REMARK  status: ('A' for Active; 'I' for Inactive)
REMARK    1  A    between atoms: C2_2  and  N1_3 
REMARK    2  A    between atoms: N1_3  and  C3_4 
REMARK       I    between atoms: N1_3  and  C5_6 
REMARK    3  A    between atoms: C5_6  and  C6_8 
REMARK    4  A    between atoms: C12_16  and  S1_17 
REMARK    5  A    between atoms: S1_17  and  C13_20 
ROOT
HETATM    1  C6  UNL     1      -3.239  -0.480   0.476  1.00  0.00     0.207 C 
HETATM    2  N2  UNL     1      -2.689  -1.636   1.165  1.00  0.00    -0.222 NA
HETATM    3  C7  UNL     1      -1.379  -2.000   1.601  1.00  0.00     0.277 C 
HETATM    4  O2  UNL     1      -1.386  -2.721   2.604  1.00  0.00    -0.266 OA
HETATM    5  C8  UNL     1      -0.072  -1.651   1.046  1.00  0.00     0.078 C 
HETATM    6  C9  UNL     1       0.700  -2.165   2.202  1.00  0.00     0.006 C 
HETATM    7  C10 UNL     1       2.015  -2.206   2.348  1.00  0.00     0.002 C 
HETATM    8  C11 UNL     1       3.025  -1.748   1.396  1.00  0.00     0.031 C 
HETATM    9  C12 UNL     1       2.907  -1.143   0.229  1.00  0.00     0.169 C 
HETATM   10  N3  UNL     1       1.704  -0.748  -0.463  1.00  0.00    -0.231 NA
HETATM   11  C19 UNL     1       0.379  -1.085  -0.061  1.00  0.00     0.126 C 
HETATM   12  C20 UNL     1      -0.304  -0.605  -1.271  1.00  0.00     0.213 C 
HETATM   13  O5  UNL     1       0.465  -0.172  -2.163  1.00  0.00    -0.285 OA
HETATM   14  C21 UNL     1      -1.697  -0.510  -1.697  1.00  0.00     0.039 A 
HETATM   15  C22 UNL     1      -1.726  -0.481  -3.075  1.00  0.00     0.003 A 
HETATM   16  C23 UNL     1      -2.956  -0.409  -3.745  1.00  0.00     0.000 A 
HETATM   17  C24 UNL     1      -4.113  -0.369  -3.004  1.00  0.00    -0.000 A 
HETATM   18  C25 UNL     1      -4.040  -0.399  -1.628  1.00  0.00    -0.002 A 
HETATM   19  C26 UNL     1      -2.850  -0.469  -0.949  1.00  0.00     0.012 A 
ENDROOT
BRANCH   9  20
HETATM   20  S1  UNL     1       4.422  -0.789  -0.555  1.00  0.00     0.226 S 
HETATM   21  O3  UNL     1       5.459  -1.844  -0.280  1.00  0.00    -0.216 OA
HETATM   22  O4  UNL     1       4.220  -0.759  -2.041  1.00  0.00    -0.216 OA
BRANCH  20  23
HETATM   23  C13 UNL     1       4.980   0.789  -0.070  1.00  0.00     0.089 A 
HETATM   24  C14 UNL     1       5.796   0.998   1.030  1.00  0.00     0.012 A 
HETATM   25  C15 UNL     1       6.210   2.280   1.368  1.00  0.00     0.012 A 
HETATM   26  C16 UNL     1       5.826   3.388   0.622  1.00  0.00     0.058 A 
HETATM   27 CL1  UNL     1       6.351   5.013   1.050  1.00  0.00    -0.082 Cl
HETATM   28  C17 UNL     1       5.014   3.173  -0.472  1.00  0.00     0.012 A 
HETATM   29  C18 UNL     1       4.606   1.888  -0.801  1.00  0.00     0.012 A 
ENDBRANCH  20  23
ENDBRANCH   9  20
BRANCH   1  30
HETATM   30  C5  UNL     1      -4.666  -0.301   0.701  1.00  0.00     0.260 C 
HETATM   31  N1  UNL     1      -5.215   0.994   0.814  1.00  0.00    -0.318 N 
HETATM   32  O1  UNL     1      -5.482  -1.279   0.810  1.00  0.00    -0.270 OA
BRANCH  31  33
HETATM   33  C2  UNL     1      -4.396   2.180   0.734  1.00  0.00     0.104 C 
HETATM   34  C1  UNL     1      -4.232   2.765  -0.619  1.00  0.00     0.026 C 
ENDBRANCH  31  33
BRANCH  31  35
HETATM   35  C3  UNL     1      -6.639   1.226   1.018  1.00  0.00     0.104 C 
HETATM   36  C4  UNL     1      -6.999   1.277   2.482  1.00  0.00     0.026 C 
ENDBRANCH  31  35
ENDBRANCH   1  30
TORSDOF 5
