REMARK  5 active torsions:
REMARK  status: ('A' for Active; 'I' for Inactive)
REMARK    1  A    between atoms: C2_2  and  N1_3 
REMARK    2  A    between atoms: N1_3  and  C3_4 
REMARK       I    between atoms: N1_3  and  C5_6 
REMARK    3  A    between atoms: C5_6  and  C6_8 
REMARK    4  A    between atoms: C6_8  and  C7_9 
REMARK    5  A    between atoms: C7_9  and  N2_10 
ROOT
HETATM    1  N2  UNL     1      -0.476  -0.377  -0.494  1.00  0.00    -0.295 N 
HETATM    2  C8  UNL     1      -0.996   0.634  -1.198  1.00  0.00     0.261 A 
HETATM    3  O2  UNL     1      -0.360   1.192  -2.152  1.00  0.00    -0.267 OA
HETATM    4  C9  UNL     1      -2.252   1.167  -0.969  1.00  0.00     0.056 A 
HETATM    5  C10 UNL     1      -2.777   2.210  -1.703  1.00  0.00     0.005 A 
HETATM    6  C11 UNL     1      -4.036   2.698  -1.425  1.00  0.00     0.000 A 
HETATM    7  C12 UNL     1      -4.752   2.126  -0.408  1.00  0.00     0.000 A 
HETATM    8  C13 UNL     1      -4.265   1.082   0.349  1.00  0.00     0.000 A 
HETATM    9  C14 UNL     1      -3.005   0.612   0.053  1.00  0.00     0.007 A 
HETATM   10  C15 UNL     1      -2.448  -0.441   0.777  1.00  0.00     0.035 A 
HETATM   11  C16 UNL     1      -3.168  -1.015   1.799  1.00  0.00     0.100 A 
HETATM   12  N3  UNL     1      -2.656  -2.027   2.509  1.00  0.00    -0.242 NA
HETATM   13  C17 UNL     1      -1.427  -2.500   2.235  1.00  0.00     0.101 A 
HETATM   14  C18 UNL     1      -0.655  -1.969   1.225  1.00  0.00     0.038 A 
HETATM   15  C19 UNL     1      -1.198  -0.918   0.495  1.00  0.00     0.066 A 
ENDROOT
BRANCH   1  16
HETATM   16  C7  UNL     1       0.853  -0.833  -0.847  1.00  0.00     0.119 C 
BRANCH  16  17
HETATM   17  C6  UNL     1       1.930  -0.120  -0.102  1.00  0.00     0.112 C 
BRANCH  17  18
HETATM   18  C5  UNL     1       3.237  -0.646  -0.522  1.00  0.00     0.235 C 
HETATM   19  N1  UNL     1       4.429  -0.137   0.036  1.00  0.00    -0.320 N 
HETATM   20  O1  UNL     1       3.300  -1.548  -1.376  1.00  0.00    -0.272 OA
BRANCH  19  21
HETATM   21  C2  UNL     1       4.428   0.924   1.045  1.00  0.00     0.104 C 
HETATM   22  C1  UNL     1       4.491   2.293   0.370  1.00  0.00     0.026 C 
ENDBRANCH  19  21
BRANCH  19  23
HETATM   23  C3  UNL     1       5.749  -0.628  -0.350  1.00  0.00     0.104 C 
HETATM   24  C4  UNL     1       6.055  -1.780   0.607  1.00  0.00     0.026 C 
ENDBRANCH  19  23
ENDBRANCH  17  18
ENDBRANCH  16  17
ENDBRANCH   1  16
TORSDOF 5
