REMARK  9 active torsions:
REMARK  status: ('A' for Active; 'I' for Inactive)
REMARK    1  A    between atoms: C2_2  and  N1_3 
REMARK    2  A    between atoms: C5_6  and  C6_7 
REMARK    3  A    between atoms: C6_7  and  C7_9 
REMARK    4  A    between atoms: C7_9  and  C8_10 
REMARK       I    between atoms: C8_10  and  N3_12 
REMARK    5  A    between atoms: N4_15  and  C11_16 
REMARK    6  A    between atoms: C11_16  and  C12_17 
REMARK    7  A    between atoms: C12_17  and  C13_18 
REMARK       I    between atoms: C13_18  and  N5_20 
REMARK    8  A    between atoms: N5_20  and  C14_21 
REMARK    9  A    between atoms: C14_21  and  C15_22 
REMARK       I    between atoms: C15_22  and  N6_24 
ROOT
HETATM    1  C8  UNL     1       1.923  -1.583   0.686  1.00  0.00     0.236 C 
HETATM    2  O1  UNL     1       2.535  -1.659   1.784  1.00  0.00    -0.272 OA
HETATM    3  N3  UNL     1       0.591  -1.098   0.610  1.00  0.00    -0.316 N 
HETATM    4  C9  UNL     1      -0.112  -1.009  -0.647  1.00  0.00     0.140 C 
HETATM    5  C10 UNL     1      -1.322  -0.091  -0.438  1.00  0.00     0.274 C 
HETATM    6  N4  UNL     1      -2.216  -0.620   0.573  1.00  0.00     0.142 N 
HETATM    7  C17 UNL     1      -1.523  -1.209   1.696  1.00  0.00     0.274 C 
HETATM    8  C18 UNL     1      -0.106  -0.673   1.801  1.00  0.00     0.140 C 
ENDROOT
BRANCH   1   9
HETATM    9  C7  UNL     1       2.652  -2.023  -0.531  1.00  0.00     0.127 C 
BRANCH   9  10
HETATM   10  C6  UNL     1       4.046  -2.488  -0.171  1.00  0.00     0.311 C 
HETATM   11  N2  UNL     1       4.780  -2.882  -1.347  1.00  0.00     0.616 N 
BRANCH  10  12
HETATM   12  C5  UNL     1       4.750  -1.312   0.468  1.00  0.00     0.042 C 
HETATM   13  C4  UNL     1       6.160  -1.631   0.879  1.00  0.00     0.037 C 
HETATM   14  C3  UNL     1       7.090  -0.989  -0.148  1.00  0.00     0.250 C 
HETATM   15  N1  UNL     1       7.046   0.456  -0.044  1.00  0.00     0.137 N 
HETATM   16  C20 UNL     1       5.689   0.960  -0.029  1.00  0.00     0.250 C 
HETATM   17  C19 UNL     1       4.667  -0.072  -0.364  1.00  0.00     0.037 C 
BRANCH  15  18
HETATM   18  C2  UNL     1       7.759   0.874   1.157  1.00  0.00     0.250 C 
HETATM   19  C1  UNL     1       7.683   2.379   1.218  1.00  0.00     0.037 C 
ENDBRANCH  15  18
ENDBRANCH  10  12
ENDBRANCH   9  10
ENDBRANCH   1   9
BRANCH   6  20
HETATM   20  C11 UNL     1      -3.167  -1.555   0.006  1.00  0.00     0.260 C 
BRANCH  20  21
HETATM   21  C12 UNL     1      -4.124  -0.831  -0.892  1.00  0.00     0.125 C 
BRANCH  21  22
HETATM   22  C13 UNL     1      -4.897   0.222  -0.140  1.00  0.00     0.254 C 
HETATM   23  O2  UNL     1      -4.730   0.426   1.089  1.00  0.00    -0.271 OA
HETATM   24  N5  UNL     1      -5.855   1.031  -0.819  1.00  0.00    -0.228 NA
BRANCH  24  25
HETATM   25  C14 UNL     1      -6.598   2.042  -0.098  1.00  0.00     0.217 C 
BRANCH  25  26
HETATM   26  C15 UNL     1      -7.519   2.732  -1.051  1.00  0.00     0.276 C 
HETATM   27  O3  UNL     1      -7.541   2.391  -2.266  1.00  0.00    -0.268 OA
HETATM   28  N6  UNL     1      -8.388   3.773  -0.658  1.00  0.00    -0.234 NA
HETATM   29  C16 UNL     1      -9.275   4.437  -1.583  1.00  0.00     0.155 C 
ENDBRANCH  25  26
ENDBRANCH  24  25
ENDBRANCH  21  22
ENDBRANCH  20  21
ENDBRANCH   6  20
TORSDOF 9
