REMARK  6 active torsions:
REMARK  status: ('A' for Active; 'I' for Inactive)
REMARK    1  A    between atoms: C2_2  and  N1_3 
REMARK    2  A    between atoms: C4_6  and  C5_7 
REMARK       I    between atoms: C5_7  and  N2_9 
REMARK    3  A    between atoms: C8_12  and  C9_13 
REMARK    4  A    between atoms: C24_30  and  O4_31 
REMARK    5  A    between atoms: C26_33  and  C27_34 
REMARK    6  A    between atoms: C27_34  and  C28_36 
ROOT
HETATM    1  N1  UNL     1       2.844   1.687  -0.099  1.00  0.00    -0.304 N 
HETATM    2  C3  UNL     1       1.473   1.617   0.299  1.00  0.00     0.201 C 
HETATM    3  O1  UNL     1       0.915   2.752   0.859  1.00  0.00    -0.171 OA
HETATM    4  C4  UNL     1       0.609   0.588   0.212  1.00  0.00     0.119 C 
HETATM    5  C21 UNL     1       0.980  -0.680  -0.383  1.00  0.00     0.186 C 
HETATM    6  O3  UNL     1       0.091  -1.204  -1.096  1.00  0.00    -0.291 OA
HETATM    7  C22 UNL     1       2.220  -1.462  -0.301  1.00  0.00     0.108 C 
HETATM    8  C23 UNL     1       2.252  -2.200   1.012  1.00  0.00     0.015 C 
HETATM    9  C24 UNL     1       3.469  -0.643  -0.386  1.00  0.00     0.096 C 
HETATM   10  C26 UNL     1       3.793   0.607  -0.318  1.00  0.00     0.106 C 
ENDROOT
BRANCH   4  11
HETATM   11  C5  UNL     1      -0.717   0.790   0.692  1.00  0.00     0.197 C 
HETATM   12  O2  UNL     1      -0.951   2.002   1.121  1.00  0.00    -0.171 OA
HETATM   13  N2  UNL     1      -1.810  -0.069   0.793  1.00  0.00    -0.327 N 
HETATM   14  C6  UNL     1      -1.850  -1.445   0.451  1.00  0.00     0.104 C 
HETATM   15  C20 UNL     1      -3.059   0.502   1.307  1.00  0.00     0.104 C 
HETATM   16  C7  UNL     1      -3.098  -1.896  -0.263  1.00  0.00     0.029 C 
HETATM   17  C8  UNL     1      -4.354  -1.454   0.427  1.00  0.00     0.026 C 
HETATM   18  C19 UNL     1      -4.103  -0.518   1.571  1.00  0.00     0.029 C 
BRANCH  17  19
HETATM   19  C9  UNL     1      -5.400  -0.991  -0.494  1.00  0.00    -0.022 C 
HETATM   20  C10 UNL     1      -5.035  -0.806  -1.727  1.00  0.00    -0.004 C 
HETATM   21  C11 UNL     1      -5.712  -0.372  -2.926  1.00  0.00     0.007 C 
HETATM   22  C12 UNL     1      -6.817   0.313  -3.034  1.00  0.00     0.035 C 
HETATM   23  S1  UNL     1      -7.869   0.948  -1.772  1.00  0.00    -0.086 SA
HETATM   24  C13 UNL     1      -7.780  -0.045  -0.298  1.00  0.00     0.029 A 
HETATM   25  C14 UNL     1      -8.961   0.039   0.398  1.00  0.00     0.006 A 
HETATM   26  C18 UNL     1      -6.712  -0.805   0.131  1.00  0.00     0.002 A 
HETATM   27  C15 UNL     1      -9.084  -0.674   1.583  1.00  0.00     0.001 A 
HETATM   28  C16 UNL     1      -8.034  -1.439   2.031  1.00  0.00     0.000 A 
HETATM   29  C17 UNL     1      -6.865  -1.500   1.310  1.00  0.00     0.000 A 
ENDBRANCH  17  19
ENDBRANCH   4  11
BRANCH   1  30
HETATM   30  C2  UNL     1       3.368   2.998  -0.313  1.00  0.00     0.108 C 
HETATM   31  C1  UNL     1       3.454   3.788   0.986  1.00  0.00     0.027 C 
ENDBRANCH   1  30
BRANCH  10  32
HETATM   32  C27 UNL     1       5.154   1.025  -0.543  1.00  0.00     0.148 C 
HETATM   33  O5  UNL     1       5.322   2.322  -0.354  1.00  0.00    -0.189 OA
BRANCH  32  34
HETATM   34  C28 UNL     1       6.319   0.303  -0.923  1.00  0.00     0.023 A 
HETATM   35  C29 UNL     1       6.463  -0.763  -1.764  1.00  0.00     0.002 A 
HETATM   36  C30 UNL     1       7.668  -1.314  -2.105  1.00  0.00     0.000 A 
HETATM   37  C31 UNL     1       8.841  -0.804  -1.599  1.00  0.00    -0.000 A 
HETATM   38  C32 UNL     1       8.756   0.260  -0.755  1.00  0.00    -0.004 A 
HETATM   39  C33 UNL     1       7.549   0.802  -0.422  1.00  0.00    -0.020 A 
HETATM   40  C34 UNL     1       7.537   1.952   0.496  1.00  0.00     0.031 C 
ENDBRANCH  32  34
ENDBRANCH  10  32
BRANCH   9  41
HETATM   41  O4  UNL     1       4.549  -1.521  -0.585  1.00  0.00    -0.330 OA
HETATM   42  C25 UNL     1       4.585  -2.691   0.254  1.00  0.00     0.181 C 
ENDBRANCH   9  41
TORSDOF 6
