REMARK  7 active torsions:
REMARK  status: ('A' for Active; 'I' for Inactive)
REMARK    1  A    between atoms: C2_2  and  C3_3 
REMARK    2  A    between atoms: C8_8  and  N1_9 
REMARK       I    between atoms: N1_9  and  C9_10 
REMARK       I    between atoms: C9_10  and  N2_12 
REMARK    3  A    between atoms: N2_12  and  C10_13 
REMARK    4  A    between atoms: C13_16  and  C14_17 
REMARK    5  A    between atoms: C18_22  and  N4_23 
REMARK       I    between atoms: N4_23  and  C19_24 
REMARK    6  A    between atoms: C19_24  and  C20_26 
REMARK    7  A    between atoms: C21_27  and  N5_28 
ROOT
HETATM    1  C14 UNL     1      -0.154  -2.239   1.982  1.00  0.00     0.021 A 
HETATM    2  C15 UNL     1       0.132  -3.085   3.041  1.00  0.00     0.022 A 
HETATM    3  C16 UNL     1      -0.862  -3.945   3.486  1.00  0.00     0.099 A 
HETATM    4  N3  UNL     1      -2.069  -3.941   2.888  1.00  0.00    -0.241 NA
HETATM    5  C17 UNL     1      -2.360  -3.117   1.851  1.00  0.00     0.118 A 
HETATM    6  C18 UNL     1      -1.404  -2.244   1.373  1.00  0.00     0.104 A 
ENDROOT
BRANCH   1   7
HETATM    7  C13 UNL     1       0.848  -1.318   1.482  1.00  0.00     0.002 A 
HETATM    8  C12 UNL     1       2.128  -1.781   1.288  1.00  0.00     0.002 A 
HETATM    9  C11 UNL     1       3.089  -0.914   0.812  1.00  0.00     0.019 A 
HETATM   10  C10 UNL     1       2.827   0.408   0.519  1.00  0.00     0.086 A 
HETATM   11  C31 UNL     1       1.541   0.860   0.717  1.00  0.00     0.019 A 
HETATM   12  C30 UNL     1       0.550  -0.005   1.199  1.00  0.00     0.002 A 
BRANCH  10  13
HETATM   13  N2  UNL     1       3.855   1.292   0.021  1.00  0.00    -0.191 NA
HETATM   14  C9  UNL     1       5.165   0.852  -0.196  1.00  0.00     0.369 C 
HETATM   15  N1  UNL     1       6.231   1.659  -0.682  1.00  0.00    -0.191 NA
HETATM   16  O1  UNL     1       5.436  -0.358   0.058  1.00  0.00    -0.242 OA
BRANCH  15  17
HETATM   17  C8  UNL     1       7.538   1.094  -0.865  1.00  0.00     0.082 A 
HETATM   18  C3  UNL     1       8.514   1.947  -1.337  1.00  0.00    -0.004 A 
HETATM   19  C4  UNL     1       9.790   1.478  -1.539  1.00  0.00    -0.003 A 
HETATM   20  C5  UNL     1      10.040   0.164  -1.257  1.00  0.00    -0.000 A 
HETATM   21  C6  UNL     1       9.069  -0.705  -0.782  1.00  0.00     0.002 A 
HETATM   22  C7  UNL     1       7.786  -0.243  -0.576  1.00  0.00     0.019 A 
BRANCH  18  23
HETATM   23  C2  UNL     1       8.218   3.365  -1.634  1.00  0.00     0.028 C 
HETATM   24  C1  UNL     1       7.458   3.527  -2.932  1.00  0.00     0.005 C 
ENDBRANCH  18  23
ENDBRANCH  15  17
ENDBRANCH  10  13
ENDBRANCH   1   7
BRANCH   6  25
HETATM   25  N4  UNL     1      -1.611  -1.355   0.301  1.00  0.00    -0.206 NA
HETATM   26  C19 UNL     1      -2.938  -1.363  -0.323  1.00  0.00     0.281 C 
HETATM   27  O2  UNL     1      -3.722  -2.158   0.176  1.00  0.00    -0.265 OA
BRANCH  26  28
HETATM   28  C20 UNL     1      -3.219  -0.478  -1.428  1.00  0.00     0.082 C 
HETATM   29  C21 UNL     1      -4.529  -0.454  -2.013  1.00  0.00     0.089 C 
BRANCH  29  30
HETATM   30  N5  UNL     1      -5.598  -0.090  -1.141  1.00  0.00    -0.257 N 
HETATM   31  C22 UNL     1      -6.443  -0.951  -0.578  1.00  0.00     0.357 A 
HETATM   32  O3  UNL     1      -6.382  -2.196  -0.848  1.00  0.00    -0.244 OA
HETATM   33  N6  UNL     1      -7.422  -0.587   0.304  1.00  0.00    -0.153 NA
HETATM   34  C23 UNL     1      -7.599   0.692   0.663  1.00  0.00     0.284 A 
HETATM   35  O4  UNL     1      -8.512   0.983   1.477  1.00  0.00    -0.265 OA
HETATM   36  C24 UNL     1      -6.754   1.613   0.107  1.00  0.00     0.074 A 
HETATM   37  C25 UNL     1      -6.888   2.948   0.438  1.00  0.00     0.006 A 
HETATM   38  C29 UNL     1      -5.777   1.224  -0.775  1.00  0.00     0.073 A 
HETATM   39  C26 UNL     1      -6.019   3.838  -0.145  1.00  0.00     0.000 A 
HETATM   40  C27 UNL     1      -5.044   3.455  -1.024  1.00  0.00     0.002 A 
HETATM   41  C28 UNL     1      -4.910   2.131  -1.353  1.00  0.00     0.018 A 
ENDBRANCH  29  30
ENDBRANCH  26  28
ENDBRANCH   6  25
TORSDOF 7
