REMARK  5 active torsions:
REMARK  status: ('A' for Active; 'I' for Inactive)
REMARK    1  A    between atoms: C3_5  and  C4_6 
REMARK    2  A    between atoms: C4_6  and  C5_7 
REMARK    3  A    between atoms: C11_13  and  C12_14 
REMARK    4  A    between atoms: C12_14  and  O2_15 
REMARK    5  A    between atoms: O2_15  and  C13_16 
ROOT
HETATM    1  C1  UNL     1      -2.734   2.956   0.159  1.00  0.00     0.134 C 
HETATM    2  N1  UNL     1      -1.527   2.202   0.434  1.00  0.00    -0.296 N 
HETATM    3  C2  UNL     1      -1.677   0.803   0.748  1.00  0.00     0.243 C 
HETATM    4  O1  UNL     1      -2.892   0.488   0.946  1.00  0.00    -0.272 OA
HETATM    5  C3  UNL     1      -0.677  -0.255   0.865  1.00  0.00     0.122 C 
HETATM    6  C11 UNL     1       0.593   0.146   1.460  1.00  0.00     0.076 C 
HETATM    7  N2  UNL     1       1.291   1.236   1.474  1.00  0.00    -0.250 NA
HETATM    8  C19 UNL     1       0.953   2.458   0.838  1.00  0.00     0.097 A 
HETATM    9  C20 UNL     1       2.025   3.293   0.678  1.00  0.00     0.021 A 
HETATM   10  C21 UNL     1       1.911   4.525   0.084  1.00  0.00     0.002 A 
HETATM   11  C22 UNL     1       0.676   4.937  -0.366  1.00  0.00     0.002 A 
HETATM   12  C23 UNL     1      -0.422   4.122  -0.220  1.00  0.00     0.019 A 
HETATM   13  C24 UNL     1      -0.282   2.895   0.376  1.00  0.00     0.080 A 
ENDROOT
BRANCH   6  14
HETATM   14  C12 UNL     1       1.257  -0.957   2.243  1.00  0.00     0.190 C 
BRANCH  14  15
HETATM   15  O2  UNL     1       1.518  -2.060   1.390  1.00  0.00    -0.325 OA
BRANCH  15  16
HETATM   16  C13 UNL     1       2.326  -1.962   0.270  1.00  0.00     0.095 A 
HETATM   17  C14 UNL     1       2.955  -0.806  -0.134  1.00  0.00     0.024 A 
HETATM   18  C15 UNL     1       3.754  -0.793  -1.277  1.00  0.00     0.002 A 
HETATM   19  C16 UNL     1       3.914  -1.934  -2.002  1.00  0.00     0.000 A 
HETATM   20  C17 UNL     1       3.303  -3.104  -1.629  1.00  0.00     0.002 A 
HETATM   21  C18 UNL     1       2.515  -3.093  -0.491  1.00  0.00     0.024 A 
ENDBRANCH  15  16
ENDBRANCH  14  15
ENDBRANCH   6  14
BRANCH   5  22
HETATM   22  C4  UNL     1      -0.523  -1.113  -0.344  1.00  0.00     0.041 C 
BRANCH  22  23
HETATM   23  C5  UNL     1      -1.821  -1.766  -0.625  1.00  0.00    -0.021 A 
HETATM   24  C6  UNL     1      -2.705  -1.114  -1.451  1.00  0.00    -0.004 A 
HETATM   25  C7  UNL     1      -3.932  -1.666  -1.753  1.00  0.00    -0.000 A 
HETATM   26  C8  UNL     1      -4.247  -2.888  -1.204  1.00  0.00    -0.000 A 
HETATM   27  C9  UNL     1      -3.390  -3.566  -0.376  1.00  0.00    -0.000 A 
HETATM   28  C10 UNL     1      -2.162  -2.982  -0.092  1.00  0.00    -0.004 A 
ENDBRANCH  22  23
ENDBRANCH   5  22
TORSDOF 5
