REMARK  4 active torsions:
REMARK  status: ('A' for Active; 'I' for Inactive)
REMARK    1  A    between atoms: C2_2  and  O1_3 
REMARK    2  A    between atoms: O1_3  and  C3_4 
REMARK    3  A    between atoms: C4_5  and  C5_6 
REMARK    4  A    between atoms: C5_6  and  C6_8 
ROOT
HETATM    1  C3  UNL     1       0.710   1.313   0.672  1.00  0.00     0.132 C 
HETATM    2  C4  UNL     1      -0.429   0.234   0.637  1.00  0.00     0.125 C 
HETATM    3  C12 UNL     1       0.104  -0.780  -0.304  1.00  0.00     0.046 C 
HETATM    4  N1  UNL     1       0.716  -1.859   0.083  1.00  0.00    -0.254 NA
HETATM    5  C13 UNL     1       2.176  -1.517   0.350  1.00  0.00     0.077 A 
HETATM    6  C14 UNL     1       2.911  -2.573   0.743  1.00  0.00     0.019 A 
HETATM    7  C15 UNL     1       4.269  -2.316   1.003  1.00  0.00     0.002 A 
HETATM    8  C16 UNL     1       4.783  -1.049   0.854  1.00  0.00    -0.000 A 
HETATM    9  C17 UNL     1       4.027   0.047   0.448  1.00  0.00    -0.003 A 
HETATM   10  C18 UNL     1       2.674  -0.213   0.190  1.00  0.00    -0.003 A 
HETATM   11  C19 UNL     1       1.859   0.933  -0.239  1.00  0.00     0.052 C 
HETATM   12  C20 UNL     1       1.321   0.788  -1.658  1.00  0.00     0.013 C 
HETATM   13  C21 UNL     1       0.129  -0.257  -1.689  1.00  0.00     0.042 C 
ENDROOT
BRANCH   2  14
HETATM   14  C5  UNL     1      -1.712   0.788   0.241  1.00  0.00     0.180 C 
HETATM   15  O2  UNL     1      -1.914   1.993  -0.042  1.00  0.00    -0.291 OA
BRANCH  14  16
HETATM   16  C6  UNL     1      -2.840  -0.166   0.178  1.00  0.00     0.035 A 
HETATM   17  C7  UNL     1      -4.084   0.316  -0.195  1.00  0.00     0.003 A 
HETATM   18  C8  UNL     1      -5.146  -0.548  -0.261  1.00  0.00     0.000 A 
HETATM   19  C9  UNL     1      -4.993  -1.873   0.034  1.00  0.00     0.000 A 
HETATM   20  C10 UNL     1      -3.753  -2.375   0.410  1.00  0.00     0.000 A 
HETATM   21  C11 UNL     1      -2.681  -1.502   0.477  1.00  0.00     0.003 A 
ENDBRANCH  14  16
ENDBRANCH   2  14
BRANCH   1  22
HETATM   22  O1  UNL     1       0.136   2.441   0.101  1.00  0.00    -0.356 OA
BRANCH  22  23
HETATM   23  C2  UNL     1       1.132   3.444   0.112  1.00  0.00     0.142 C 
HETATM   24  C1  UNL     1       0.607   4.733  -0.496  1.00  0.00     0.035 C 
ENDBRANCH  22  23
ENDBRANCH   1  22
TORSDOF 4
