REMARK  11 active torsions:
REMARK  status: ('A' for Active; 'I' for Inactive)
REMARK    1  A    between atoms: O1_2  and  C2_3 
REMARK    2  A    between atoms: C2_3  and  C3_4 
REMARK    3  A    between atoms: C8_9  and  N1_10 
REMARK    4  A    between atoms: N1_10  and  S1_11 
REMARK    5  A    between atoms: S1_11  and  C9_14 
REMARK    6  A    between atoms: C11_16  and  C12_17 
REMARK    7  A    between atoms: C17_22  and  C18_23 
REMARK       I    between atoms: C18_23  and  N2_25 
REMARK    8  A    between atoms: N2_25  and  C20_27 
REMARK    9  A    between atoms: C20_27  and  C21_28 
REMARK   10  A    between atoms: C27_34  and  C28_35 
REMARK   11  A    between atoms: C33_40  and  C34_41 
ROOT
HETATM    1  C9  UNL     1      -1.500   0.687  -1.400  1.00  0.00     0.167 A 
HETATM    2  C10 UNL     1      -0.554   0.278  -0.509  1.00  0.00     0.032 A 
HETATM    3  C11 UNL     1       0.323   1.341  -0.281  1.00  0.00     0.018 A 
HETATM    4  C27 UNL     1      -0.125   2.389  -1.057  1.00  0.00     0.061 A 
HETATM    5  N3  UNL     1      -1.206   1.964  -1.705  1.00  0.00    -0.316 N 
HETATM    6  C35 UNL     1      -1.972   2.784  -2.640  1.00  0.00     0.131 C 
ENDROOT
BRANCH   3   7
HETATM    7  C12 UNL     1       1.497   1.355   0.598  1.00  0.00     0.006 A 
HETATM    8  C13 UNL     1       1.548   2.273   1.641  1.00  0.00     0.000 A 
HETATM    9  C14 UNL     1       2.632   2.334   2.490  1.00  0.00     0.000 A 
HETATM   10  C15 UNL     1       3.664   1.460   2.277  1.00  0.00     0.000 A 
HETATM   11  C16 UNL     1       3.605   0.548   1.236  1.00  0.00     0.005 A 
HETATM   12  C17 UNL     1       2.531   0.471   0.377  1.00  0.00     0.056 A 
BRANCH  12  13
HETATM   13  C18 UNL     1       2.471  -0.489  -0.714  1.00  0.00     0.257 C 
HETATM   14  O4  UNL     1       2.908  -0.218  -1.867  1.00  0.00    -0.267 OA
HETATM   15  N2  UNL     1       1.912  -1.762  -0.498  1.00  0.00    -0.311 N 
HETATM   16  C19 UNL     1       1.849  -2.702  -1.593  1.00  0.00     0.129 C 
BRANCH  15  17
HETATM   17  C20 UNL     1       1.416  -2.137   0.796  1.00  0.00     0.131 C 
BRANCH  17  18
HETATM   18  C21 UNL     1       2.473  -2.834   1.578  1.00  0.00     0.000 A 
HETATM   19  C22 UNL     1       2.957  -4.021   1.061  1.00  0.00    -0.002 A 
HETATM   20  C23 UNL     1       3.918  -4.723   1.724  1.00  0.00    -0.000 A 
HETATM   21  C24 UNL     1       4.419  -4.257   2.917  1.00  0.00    -0.000 A 
HETATM   22  C25 UNL     1       3.948  -3.073   3.450  1.00  0.00    -0.000 A 
HETATM   23  C26 UNL     1       2.978  -2.377   2.770  1.00  0.00    -0.002 A 
ENDBRANCH  17  18
ENDBRANCH  15  17
ENDBRANCH  12  13
ENDBRANCH   3   7
BRANCH   4  24
HETATM   24  C28 UNL     1       0.488   3.734  -1.151  1.00  0.00     0.022 A 
HETATM   25  C29 UNL     1       1.609   3.933  -1.943  1.00  0.00     0.002 A 
HETATM   26  C30 UNL     1       2.230   5.150  -2.084  1.00  0.00     0.000 A 
HETATM   27  C31 UNL     1       1.695   6.218  -1.393  1.00  0.00     0.000 A 
HETATM   28  C32 UNL     1       0.584   6.044  -0.602  1.00  0.00     0.006 A 
HETATM   29  C33 UNL     1      -0.029   4.802  -0.473  1.00  0.00     0.066 A 
BRANCH  29  30
HETATM   30  C34 UNL     1      -1.191   4.618   0.376  1.00  0.00     0.211 C 
HETATM   31  O5  UNL     1      -1.679   5.588   0.991  1.00  0.00    -0.644 OA
HETATM   32  O6  UNL     1      -1.765   3.378   0.513  1.00  0.00    -0.644 OA
ENDBRANCH  29  30
ENDBRANCH   4  24
BRANCH   1  33
HETATM   33  S1  UNL     1      -2.858  -0.204  -2.067  1.00  0.00     0.300 S 
HETATM   34  O2  UNL     1      -2.764  -0.228  -3.574  1.00  0.00    -0.197 OA
HETATM   35  O3  UNL     1      -4.165   0.491  -1.748  1.00  0.00    -0.197 OA
BRANCH  33  36
HETATM   36  N1  UNL     1      -2.949  -1.787  -1.471  1.00  0.00    -0.157 NA
BRANCH  36  37
HETATM   37  C8  UNL     1      -3.131  -2.101  -0.106  1.00  0.00     0.092 A 
HETATM   38  C3  UNL     1      -3.388  -3.373   0.318  1.00  0.00     0.026 A 
HETATM   39  C4  UNL     1      -3.553  -3.615   1.657  1.00  0.00    -0.000 A 
HETATM   40  C5  UNL     1      -3.467  -2.610   2.592  1.00  0.00    -0.000 A 
HETATM   41  C6  UNL     1      -3.207  -1.340   2.136  1.00  0.00     0.002 A 
HETATM   42  C7  UNL     1      -3.042  -1.088   0.813  1.00  0.00     0.020 A 
BRANCH  38  43
HETATM   43  C2  UNL     1      -3.492  -4.488  -0.650  1.00  0.00     0.170 C 
BRANCH  43  44
HETATM   44  O1  UNL     1      -3.760  -5.688   0.020  1.00  0.00    -0.347 OA
HETATM   45  C1  UNL     1      -3.855  -6.726  -0.890  1.00  0.00     0.175 C 
ENDBRANCH  43  44
ENDBRANCH  38  43
ENDBRANCH  36  37
ENDBRANCH  33  36
ENDBRANCH   1  33
TORSDOF 11
