REMARK  8 active torsions:
REMARK  status: ('A' for Active; 'I' for Inactive)
REMARK    1  A    between atoms: C2_2  and  O1_3 
REMARK    2  A    between atoms: O1_3  and  C3_4 
REMARK    3  A    between atoms: C8_9  and  C9_10 
REMARK    4  A    between atoms: C9_10  and  C10_11 
REMARK    5  A    between atoms: C10_11  and  N1_12 
REMARK    6  A    between atoms: C16_21  and  C17_22 
REMARK    7  A    between atoms: C17_22  and  C18_23 
REMARK       I    between atoms: C18_23  and  N2_25 
REMARK    8  A    between atoms: N2_25  and  C19_26 
ROOT
HETATM    1  C3  UNL     1       2.317   0.476   2.093  1.00  0.00     0.092 A 
HETATM    2  C4  UNL     1       1.507   1.547   2.499  1.00  0.00     0.024 A 
HETATM    3  C5  UNL     1       0.399   1.904   1.767  1.00  0.00     0.007 A 
HETATM    4  C6  UNL     1       0.049   1.240   0.634  1.00  0.00     0.058 A 
HETATM    5  C7  UNL     1       0.859   0.173   0.236  1.00  0.00     0.104 A 
HETATM    6  C8  UNL     1       1.994  -0.208   0.966  1.00  0.00     0.025 A 
HETATM    7  O3  UNL     1       0.535  -0.529  -0.908  1.00  0.00    -0.276 OA
HETATM    8  C15 UNL     1      -0.575  -0.200  -1.670  1.00  0.00     0.284 C 
HETATM    9  O4  UNL     1      -1.086  -1.105  -2.376  1.00  0.00    -0.263 OA
HETATM   10  C16 UNL     1      -1.086   1.191  -1.603  1.00  0.00     0.158 C 
HETATM   11  C25 UNL     1      -1.099   1.595  -0.186  1.00  0.00     0.184 C 
HETATM   12  O6  UNL     1      -2.049   2.213   0.303  1.00  0.00    -0.291 OA
ENDROOT
BRANCH  10  13
HETATM   13  C17 UNL     1      -2.410   1.383  -2.280  1.00  0.00     0.108 C 
BRANCH  13  14
HETATM   14  C18 UNL     1      -3.486   0.576  -1.710  1.00  0.00     0.257 C 
HETATM   15  O5  UNL     1      -3.274  -0.169  -0.736  1.00  0.00    -0.270 OA
HETATM   16  N2  UNL     1      -4.830   0.600  -2.236  1.00  0.00    -0.212 NA
BRANCH  16  17
HETATM   17  C19 UNL     1      -5.830  -0.212  -1.620  1.00  0.00     0.084 A 
HETATM   18  C20 UNL     1      -7.128  -0.206  -2.087  1.00  0.00     0.019 A 
HETATM   19  C21 UNL     1      -8.071  -0.993  -1.460  1.00  0.00     0.002 A 
HETATM   20  C22 UNL     1      -7.755  -1.792  -0.373  1.00  0.00     0.000 A 
HETATM   21  C23 UNL     1      -6.445  -1.790   0.088  1.00  0.00     0.002 A 
HETATM   22  C24 UNL     1      -5.517  -0.998  -0.550  1.00  0.00     0.019 A 
ENDBRANCH  16  17
ENDBRANCH  13  14
ENDBRANCH  10  13
BRANCH   6  23
HETATM   23  C9  UNL     1       2.813  -1.314   0.462  1.00  0.00     0.066 C 
BRANCH  23  24
HETATM   24  C10 UNL     1       4.000  -0.857  -0.313  1.00  0.00     0.255 C 
BRANCH  24  25
HETATM   25  N1  UNL     1       4.968  -0.092   0.405  1.00  0.00     0.143 N 
HETATM   26  C11 UNL     1       5.933   0.423  -0.594  1.00  0.00     0.282 C 
HETATM   27  C12 UNL     1       6.262  -0.661  -1.604  1.00  0.00     0.178 C 
HETATM   28  O2  UNL     1       6.445  -1.835  -0.842  1.00  0.00    -0.350 OA
HETATM   29  C13 UNL     1       6.944  -1.438   0.400  1.00  0.00     0.178 C 
HETATM   30  C14 UNL     1       5.761  -1.044   1.254  1.00  0.00     0.282 C 
ENDBRANCH  24  25
ENDBRANCH  23  24
ENDBRANCH   6  23
BRANCH   1  31
HETATM   31  O1  UNL     1       3.406   0.179   2.880  1.00  0.00    -0.331 OA
BRANCH  31  32
HETATM   32  C2  UNL     1       3.764   0.862   4.046  1.00  0.00     0.149 C 
HETATM   33  C1  UNL     1       2.683   0.808   5.114  1.00  0.00     0.035 C 
ENDBRANCH  31  32
ENDBRANCH   1  31
TORSDOF 8
