REMARK  12 active torsions:
REMARK  status: ('A' for Active; 'I' for Inactive)
REMARK    1  A    between atoms: C2_2  and  O1_3 
REMARK    2  A    between atoms: O1_3  and  C3_4 
REMARK    3  A    between atoms: C8_9  and  N1_10 
REMARK       I    between atoms: N1_10  and  C9_11 
REMARK       I    between atoms: C9_11  and  N2_13 
REMARK    4  A    between atoms: N2_13  and  C10_14 
REMARK    5  A    between atoms: C10_14  and  C11_15 
REMARK       I    between atoms: N3_17  and  C13_18 
REMARK    6  A    between atoms: C13_18  and  C14_20 
REMARK    7  A    between atoms: C21_27  and  C22_28 
REMARK    8  A    between atoms: C22_28  and  C23_30 
REMARK    9  A    between atoms: N4_34  and  C27_35 
REMARK   10  A    between atoms: C27_35  and  C28_36 
REMARK   11  A    between atoms: N5_43  and  C35_44 
REMARK   12  A    between atoms: C35_44  and  C37_46 
ROOT
HETATM    1  C11 UNL     1      -1.812  -1.715  -1.702  1.00  0.00     0.080 C 
HETATM    2  C12 UNL     1      -1.480  -0.308  -2.166  1.00  0.00     0.108 C 
HETATM    3  N3  UNL     1      -0.228  -0.244  -2.879  1.00  0.00    -0.314 N 
HETATM    4  C13 UNL     1      -0.243   0.335  -4.192  1.00  0.00     0.257 C 
HETATM    5  O3  UNL     1      -1.324   0.755  -4.665  1.00  0.00    -0.267 OA
HETATM    6  C20 UNL     1       1.067  -0.681  -2.477  1.00  0.00     0.145 C 
HETATM    7  C21 UNL     1       1.229  -0.971  -1.015  1.00  0.00     0.298 C 
HETATM    8  N5  UNL     1       0.244  -1.837  -0.517  1.00  0.00     0.146 N 
HETATM    9  C43 UNL     1      -0.478  -2.438  -1.616  1.00  0.00     0.255 C 
ENDROOT
BRANCH   7  10
HETATM   10  C22 UNL     1       1.541   0.244  -0.294  1.00  0.00     0.185 C 
HETATM   11  O4  UNL     1       0.984   0.532   0.738  1.00  0.00    -0.294 OA
BRANCH  10  12
HETATM   12  C23 UNL     1       2.566   1.168  -0.824  1.00  0.00     0.093 C 
HETATM   13  C24 UNL     1       3.900   0.509  -0.967  1.00  0.00     0.011 C 
HETATM   14  C25 UNL     1       4.624   0.581   0.352  1.00  0.00     0.036 C 
HETATM   15  C26 UNL     1       3.626   0.903   1.453  1.00  0.00     0.251 C 
HETATM   16  N4  UNL     1       3.107   2.258   1.321  1.00  0.00     0.142 N 
HETATM   17  C34 UNL     1       2.627   2.454  -0.030  1.00  0.00     0.258 C 
BRANCH  16  18
HETATM   18  C27 UNL     1       4.213   3.202   1.541  1.00  0.00     0.277 C 
BRANCH  18  19
HETATM   19  C28 UNL     1       4.758   2.974   2.913  1.00  0.00     0.011 A 
HETATM   20  C29 UNL     1       5.781   2.090   3.164  1.00  0.00    -0.002 A 
HETATM   21  C30 UNL     1       6.288   1.874   4.429  1.00  0.00    -0.000 A 
HETATM   22  C31 UNL     1       5.740   2.576   5.483  1.00  0.00    -0.000 A 
HETATM   23  C32 UNL     1       4.716   3.467   5.259  1.00  0.00    -0.000 A 
HETATM   24  C33 UNL     1       4.222   3.667   3.965  1.00  0.00    -0.002 A 
ENDBRANCH  18  19
ENDBRANCH  16  18
ENDBRANCH  10  12
ENDBRANCH   7  10
BRANCH   8  25
HETATM   25  C35 UNL     1       0.624  -2.770   0.493  1.00  0.00     0.242 C 
HETATM   26  C36 UNL     1       1.084  -2.124   1.770  1.00  0.00     0.040 C 
BRANCH  25  27
HETATM   27  C37 UNL     1       1.603  -3.780   0.027  1.00  0.00     0.009 A 
HETATM   28  C38 UNL     1       2.671  -4.064   0.851  1.00  0.00    -0.002 A 
HETATM   29  C39 UNL     1       3.631  -4.987   0.497  1.00  0.00    -0.000 A 
HETATM   30  C40 UNL     1       3.530  -5.653  -0.718  1.00  0.00    -0.000 A 
HETATM   31  C41 UNL     1       2.463  -5.363  -1.529  1.00  0.00    -0.000 A 
HETATM   32  C42 UNL     1       1.514  -4.439  -1.159  1.00  0.00    -0.002 A 
ENDBRANCH  25  27
ENDBRANCH   8  25
BRANCH   4  33
HETATM   33  C14 UNL     1       0.957   0.456  -5.002  1.00  0.00     0.056 A 
HETATM   34  C15 UNL     1       2.172   0.003  -4.503  1.00  0.00     0.005 A 
HETATM   35  C16 UNL     1       3.356   0.076  -5.199  1.00  0.00     0.000 A 
HETATM   36  C17 UNL     1       3.298   0.643  -6.475  1.00  0.00     0.000 A 
HETATM   37  C18 UNL     1       2.098   1.094  -6.976  1.00  0.00     0.000 A 
HETATM   38  C19 UNL     1       0.927   1.009  -6.259  1.00  0.00     0.005 A 
ENDBRANCH   4  33
BRANCH   1  39
HETATM   39  C10 UNL     1      -2.330  -1.676  -0.256  1.00  0.00     0.135 C 
BRANCH  39  40
HETATM   40  N2  UNL     1      -3.527  -0.832  -0.283  1.00  0.00    -0.217 NA
HETATM   41  C9  UNL     1      -4.246  -0.588   0.920  1.00  0.00     0.364 C 
HETATM   42  N1  UNL     1      -5.413   0.210   0.997  1.00  0.00    -0.189 NA
HETATM   43  O2  UNL     1      -3.815  -1.121   1.987  1.00  0.00    -0.243 OA
BRANCH  42  44
HETATM   44  C8  UNL     1      -6.143   0.470   2.167  1.00  0.00     0.108 A 
HETATM   45  C3  UNL     1      -7.265   1.256   2.128  1.00  0.00     0.112 A 
HETATM   46  C4  UNL     1      -7.972   1.504   3.290  1.00  0.00     0.026 A 
HETATM   47  C5  UNL     1      -7.563   0.967   4.498  1.00  0.00     0.002 A 
HETATM   48  C6  UNL     1      -6.450   0.185   4.546  1.00  0.00     0.002 A 
HETATM   49  C7  UNL     1      -5.751  -0.053   3.367  1.00  0.00     0.021 A 
BRANCH  45  50
HETATM   50  O1  UNL     1      -7.659   1.785   0.911  1.00  0.00    -0.329 OA
BRANCH  50  51
HETATM   51  C2  UNL     1      -8.816   2.596   0.875  1.00  0.00     0.149 C 
HETATM   52  C1  UNL     1      -8.645   3.800   1.763  1.00  0.00     0.035 C 
ENDBRANCH  50  51
ENDBRANCH  45  50
ENDBRANCH  42  44
ENDBRANCH  39  40
ENDBRANCH   1  39
TORSDOF 12
