REMARK  12 active torsions:
REMARK  status: ('A' for Active; 'I' for Inactive)
REMARK    1  A    between atoms: O1_2  and  C2_3 
REMARK    2  A    between atoms: C5_6  and  C6_7 
REMARK       I    between atoms: C6_7  and  N1_9 
REMARK    3  A    between atoms: C11_14  and  C12_15 
REMARK    4  A    between atoms: N2_24  and  C20_25 
REMARK    5  A    between atoms: C21_26  and  C22_27 
REMARK    6  A    between atoms: C22_27  and  C23_28 
REMARK    7  A    between atoms: C23_28  and  C24_29 
REMARK       I    between atoms: C24_29  and  N3_31 
REMARK    8  A    between atoms: N3_31  and  C25_32 
REMARK    9  A    between atoms: C28_35  and  C29_36 
REMARK   10  A    between atoms: C38_45  and  C39_46 
REMARK   11  A    between atoms: C39_46  and  O5_47 
REMARK   12  A    between atoms: O5_47  and  C40_48 
ROOT
HETATM    1  C6  UNL     1      -2.861   0.202  -2.831  1.00  0.00     0.191 C 
HETATM    2  O2  UNL     1      -2.868   1.408  -3.321  1.00  0.00    -0.171 OA
HETATM    3  N1  UNL     1      -1.600  -0.421  -2.649  1.00  0.00    -0.328 N 
HETATM    4  C7  UNL     1      -0.384   0.300  -3.149  1.00  0.00     0.126 C 
HETATM    5  C8  UNL     1       0.718  -0.284  -2.238  1.00  0.00     0.112 C 
HETATM    6  C9  UNL     1       0.312  -1.728  -2.118  1.00  0.00     0.047 C 
HETATM    7  C10 UNL     1      -1.222  -1.596  -1.992  1.00  0.00     0.086 C 
HETATM    8  C11 UNL     1      -1.624  -1.848  -0.586  1.00  0.00     0.030 C 
HETATM    9  C18 UNL     1      -0.391  -1.696   0.346  1.00  0.00     0.090 C 
HETATM   10  C19 UNL     1       0.093  -0.289   0.261  1.00  0.00     0.237 C 
HETATM   11  O3  UNL     1       0.273   0.396   1.262  1.00  0.00    -0.272 OA
HETATM   12  N2  UNL     1       0.390   0.398  -0.944  1.00  0.00    -0.298 N 
ENDROOT
BRANCH   1  13
HETATM   13  C5  UNL     1      -4.168  -0.324  -2.543  1.00  0.00     0.042 A 
HETATM   14  C4  UNL     1      -4.411  -1.662  -2.454  1.00  0.00     0.006 A 
HETATM   15  C3  UNL     1      -5.662  -2.189  -2.119  1.00  0.00     0.024 A 
HETATM   16  C2  UNL     1      -6.696  -1.365  -1.861  1.00  0.00     0.092 A 
HETATM   17  C38 UNL     1      -6.491   0.011  -1.933  1.00  0.00     0.030 A 
HETATM   18  C37 UNL     1      -5.262   0.517  -2.267  1.00  0.00     0.004 A 
BRANCH  16  19
HETATM   19  O1  UNL     1      -7.968  -1.821  -1.516  1.00  0.00    -0.328 OA
HETATM   20  C1  UNL     1      -8.140  -3.208  -1.438  1.00  0.00     0.181 C 
ENDBRANCH  16  19
BRANCH  17  21
HETATM   21  C39 UNL     1      -7.704   0.881  -1.654  1.00  0.00     0.177 C 
BRANCH  21  22
HETATM   22  O5  UNL     1      -8.190   0.658  -0.396  1.00  0.00    -0.326 OA
BRANCH  22  23
HETATM   23  C40 UNL     1      -7.717   0.656   0.866  1.00  0.00     0.090 A 
HETATM   24  C41 UNL     1      -6.408   0.900   1.203  1.00  0.00     0.024 A 
HETATM   25  C42 UNL     1      -5.968   0.871   2.523  1.00  0.00     0.002 A 
HETATM   26  C43 UNL     1      -6.879   0.593   3.504  1.00  0.00    -0.000 A 
HETATM   27  C44 UNL     1      -8.179   0.346   3.232  1.00  0.00    -0.002 A 
HETATM   28  C45 UNL     1      -8.588   0.378   1.930  1.00  0.00     0.001 A 
HETATM   29  C46 UNL     1     -10.012   0.109   1.577  1.00  0.00     0.033 C 
ENDBRANCH  22  23
ENDBRANCH  21  22
ENDBRANCH  17  21
ENDBRANCH   1  13
BRANCH   8  30
HETATM   30  C12 UNL     1      -2.689  -1.021   0.024  1.00  0.00     0.002 C 
HETATM   31  C13 UNL     1      -2.329   0.415   0.104  1.00  0.00     0.000 C 
HETATM   32  C14 UNL     1      -2.922   1.179   1.224  1.00  0.00     0.000 C 
HETATM   33  C15 UNL     1      -2.653   0.547   2.569  1.00  0.00     0.000 C 
HETATM   34  C16 UNL     1      -2.394  -0.936   2.503  1.00  0.00     0.000 C 
HETATM   35  C17 UNL     1      -3.146  -1.595   1.354  1.00  0.00     0.000 C 
ENDBRANCH   8  30
BRANCH  12  36
HETATM   36  C20 UNL     1       0.284   1.778  -1.117  1.00  0.00     0.073 C 
HETATM   37  C21 UNL     1       1.182   2.744  -0.712  1.00  0.00    -0.007 C 
BRANCH  37  38
HETATM   38  C22 UNL     1       2.622   2.651  -1.037  1.00  0.00     0.036 C 
BRANCH  38  39
HETATM   39  C23 UNL     1       3.164   1.473  -0.292  1.00  0.00     0.079 C 
BRANCH  39  40
HETATM   40  C24 UNL     1       4.605   1.258  -0.341  1.00  0.00     0.190 C 
HETATM   41  O4  UNL     1       5.338   1.791  -1.279  1.00  0.00    -0.174 OA
HETATM   42  N3  UNL     1       5.316   0.506   0.589  1.00  0.00    -0.224 NA
BRANCH  42  43
HETATM   43  C25 UNL     1       6.675   0.218   0.701  1.00  0.00     0.083 A 
HETATM   44  C26 UNL     1       7.538  -0.219  -0.252  1.00  0.00     0.019 A 
HETATM   45  C27 UNL     1       8.898  -0.448  -0.002  1.00  0.00     0.002 A 
HETATM   46  C28 UNL     1       9.415  -0.232   1.242  1.00  0.00     0.000 A 
HETATM   47  C35 UNL     1       8.553   0.218   2.238  1.00  0.00     0.002 A 
HETATM   48  C36 UNL     1       7.227   0.441   1.995  1.00  0.00     0.019 A 
BRANCH  46  49
HETATM   49  C29 UNL     1      10.836  -0.472   1.582  1.00  0.00     0.000 A 
HETATM   50  C30 UNL     1      11.827  -0.338   0.652  1.00  0.00     0.000 A 
HETATM   51  C31 UNL     1      13.152  -0.528   1.023  1.00  0.00     0.000 A 
HETATM   52  C32 UNL     1      13.462  -0.855   2.351  1.00  0.00     0.000 A 
HETATM   53  C33 UNL     1      12.480  -0.997   3.308  1.00  0.00     0.000 A 
HETATM   54  C34 UNL     1      11.167  -0.795   2.881  1.00  0.00     0.000 A 
ENDBRANCH  46  49
ENDBRANCH  42  43
ENDBRANCH  39  40
ENDBRANCH  38  39
ENDBRANCH  37  38
ENDBRANCH  12  36
TORSDOF 12
