REMARK  9 active torsions:
REMARK  status: ('A' for Active; 'I' for Inactive)
REMARK    1  A    between atoms: O1_2  and  C2_3 
REMARK    2  A    between atoms: C5_6  and  C6_7 
REMARK    3  A    between atoms: C6_7  and  C7_8 
REMARK    4  A    between atoms: C6_7  and  C14_23 
REMARK    5  A    between atoms: C7_8  and  S1_9 
REMARK    6  A    between atoms: S1_9  and  C8_12 
REMARK    7  A    between atoms: C13_17  and  N1_18 
REMARK    8  A    between atoms: N1_18  and  S2_19 
REMARK       I    between atoms: C14_23  and  N3_25 
REMARK    9  A    between atoms: C23_34  and  C24_35 
ROOT
HETATM    1  C6  UNL     1       0.099   0.038  -0.455  1.00  0.00     0.050 C 
ENDROOT
BRANCH   1   2
HETATM    2  C5  UNL     1      -0.391  -1.296  -0.801  1.00  0.00     0.002 A 
HETATM    3  C4  UNL     1      -0.791  -2.146   0.219  1.00  0.00     0.002 A 
HETATM    4  C3  UNL     1      -1.263  -3.414  -0.016  1.00  0.00     0.024 A 
HETATM    5  C2  UNL     1      -1.350  -3.877  -1.305  1.00  0.00     0.094 A 
HETATM    6  C26 UNL     1      -0.961  -3.059  -2.336  1.00  0.00     0.024 A 
HETATM    7  C25 UNL     1      -0.489  -1.786  -2.082  1.00  0.00     0.002 A 
BRANCH   5   8
HETATM    8  O1  UNL     1      -1.831  -5.168  -1.529  1.00  0.00    -0.328 OA
HETATM    9  C1  UNL     1      -2.223  -5.988  -0.470  1.00  0.00     0.181 C 
ENDBRANCH   5   8
ENDBRANCH   1   2
BRANCH   1  10
HETATM   10  C7  UNL     1       1.538   0.277  -0.764  1.00  0.00     0.158 C 
BRANCH  10  11
HETATM   11  S1  UNL     1       2.492  -0.910   0.162  1.00  0.00     0.196 S 
HETATM   12  O2  UNL     1       2.065  -2.296  -0.254  1.00  0.00    -0.221 OA
HETATM   13  O3  UNL     1       2.132  -0.723   1.609  1.00  0.00    -0.221 OA
BRANCH  11  14
HETATM   14  C8  UNL     1       4.179  -0.693  -0.148  1.00  0.00     0.103 A 
HETATM   15  C9  UNL     1       4.967  -1.693  -0.693  1.00  0.00     0.013 A 
HETATM   16  C10 UNL     1       6.319  -1.486  -0.929  1.00  0.00     0.001 A 
HETATM   17  C11 UNL     1       6.907  -0.274  -0.623  1.00  0.00     0.002 A 
HETATM   18  C12 UNL     1       6.116   0.714  -0.082  1.00  0.00     0.021 A 
HETATM   19  C13 UNL     1       4.758   0.515   0.159  1.00  0.00     0.106 A 
BRANCH  19  20
HETATM   20  N1  UNL     1       3.951   1.553   0.722  1.00  0.00    -0.141 NA
BRANCH  20  21
HETATM   21  S2  UNL     1       4.610   3.087   1.129  1.00  0.00     0.383 S 
HETATM   22  N2  UNL     1       5.183   3.088   2.756  1.00  0.00    -0.026 N 
HETATM   23  O4  UNL     1       3.477   4.094   1.061  1.00  0.00    -0.177 OA
HETATM   24  O5  UNL     1       5.711   3.484   0.171  1.00  0.00    -0.177 OA
ENDBRANCH  20  21
ENDBRANCH  19  20
ENDBRANCH  11  14
ENDBRANCH  10  11
ENDBRANCH   1  10
BRANCH   1  25
HETATM   25  C14 UNL     1      -0.794   1.137  -0.819  1.00  0.00     0.255 C 
HETATM   26  O6  UNL     1      -0.454   2.066  -1.613  1.00  0.00    -0.268 OA
HETATM   27  N3  UNL     1      -2.102   1.193  -0.278  1.00  0.00    -0.305 N 
HETATM   28  C15 UNL     1      -3.003   2.284  -0.633  1.00  0.00     0.131 C 
HETATM   29  C23 UNL     1      -2.510   0.140   0.631  1.00  0.00     0.176 C 
HETATM   30  C16 UNL     1      -4.392   1.894  -0.330  1.00  0.00    -0.004 A 
HETATM   31  C17 UNL     1      -5.403   2.853  -0.394  1.00  0.00    -0.003 A 
HETATM   32  C21 UNL     1      -4.790   0.626   0.021  1.00  0.00    -0.022 A 
HETATM   33  C18 UNL     1      -6.715   2.533  -0.119  1.00  0.00    -0.000 A 
HETATM   34  C19 UNL     1      -7.076   1.253   0.229  1.00  0.00    -0.000 A 
HETATM   35  C20 UNL     1      -6.107   0.297   0.299  1.00  0.00    -0.004 A 
HETATM   36  C22 UNL     1      -3.798  -0.491   0.124  1.00  0.00     0.059 C 
BRANCH  29  37
HETATM   37  C24 UNL     1      -2.633   0.627   2.020  1.00  0.00     0.207 C 
HETATM   38  O7  UNL     1      -2.409   1.813   2.359  1.00  0.00    -0.646 OA
HETATM   39  O8  UNL     1      -3.017  -0.266   3.004  1.00  0.00    -0.646 OA
ENDBRANCH  29  37
ENDBRANCH   1  25
TORSDOF 9
