REMARK  14 active torsions:
REMARK  status: ('A' for Active; 'I' for Inactive)
REMARK    1  A    between atoms: N1_2  and  C3_4 
REMARK    2  A    between atoms: C3_4  and  C4_5 
REMARK    3  A    between atoms: C4_5  and  N2_6 
REMARK    4  A    between atoms: N2_6  and  O1_7 
REMARK    5  A    between atoms: O1_7  and  C5_8 
REMARK    6  A    between atoms: C5_8  and  C6_10 
REMARK    7  A    between atoms: C6_10  and  C7_12 
REMARK    8  A    between atoms: C12_17  and  N3_18 
REMARK       I    between atoms: N3_18  and  C13_19 
REMARK    9  A    between atoms: C13_19  and  C14_21 
REMARK   10  A    between atoms: C16_23  and  C17_24 
REMARK   11  A    between atoms: C20_29  and  N5_30 
REMARK   12  A    between atoms: C25_35  and  S1_36 
REMARK   13  A    between atoms: S1_36  and  C26_39 
REMARK   14  A    between atoms: C26_39  and  C27_40 
ROOT
HETATM    1  C14 UNL     1      -0.923   2.130   1.420  1.00  0.00     0.073 A 
HETATM    2  C15 UNL     1       0.131   2.981   1.801  1.00  0.00     0.011 A 
HETATM    3  C16 UNL     1       0.051   4.331   1.722  1.00  0.00     0.053 A 
HETATM    4  C18 UNL     1      -1.116   4.883   1.248  1.00  0.00     0.006 A 
HETATM    5  C19 UNL     1      -2.151   4.070   0.873  1.00  0.00     0.017 A 
HETATM    6  C20 UNL     1      -2.098   2.664   0.944  1.00  0.00     0.061 A 
ENDROOT
BRANCH   1   7
HETATM    7  C13 UNL     1      -0.767   0.689   1.516  1.00  0.00     0.281 C 
HETATM    8  N3  UNL     1       0.476   0.130   1.053  1.00  0.00    -0.208 NA
HETATM    9  O4  UNL     1      -1.598  -0.126   1.958  1.00  0.00    -0.265 OA
BRANCH   8  10
HETATM   10  C12 UNL     1       0.748  -1.263   1.095  1.00  0.00     0.088 A 
HETATM   11  C7  UNL     1       1.965  -1.709   0.631  1.00  0.00     0.062 A 
HETATM   12  C8  UNL     1       2.240  -3.068   0.669  1.00  0.00     0.005 A 
HETATM   13  C9  UNL     1       1.316  -3.968   1.161  1.00  0.00     0.000 A 
HETATM   14  C10 UNL     1       0.114  -3.470   1.613  1.00  0.00     0.002 A 
HETATM   15  C11 UNL     1      -0.198  -2.118   1.591  1.00  0.00     0.019 A 
BRANCH  11  16
HETATM   16  C6  UNL     1       2.984  -0.820   0.100  1.00  0.00     0.261 C 
HETATM   17  O3  UNL     1       2.774   0.419   0.048  1.00  0.00    -0.281 OA
BRANCH  16  18
HETATM   18  C5  UNL     1       4.269  -1.303  -0.387  1.00  0.00     0.352 C 
HETATM   19  O2  UNL     1       4.519  -2.542  -0.351  1.00  0.00    -0.254 OA
BRANCH  18  20
HETATM   20  O1  UNL     1       5.238  -0.463  -0.893  1.00  0.00    -0.199 OA
BRANCH  20  21
HETATM   21  N2  UNL     1       6.433  -0.982  -1.338  1.00  0.00    -0.073 NA
BRANCH  21  22
HETATM   22  C4  UNL     1       7.082  -0.090  -2.271  1.00  0.00     0.158 C 
BRANCH  22  23
HETATM   23  C3  UNL     1       8.384  -0.755  -2.696  1.00  0.00     0.272 C 
BRANCH  23  24
HETATM   24  N1  UNL     1       9.177  -0.946  -1.500  1.00  0.00     0.143 N 
HETATM   25  C1  UNL     1      10.449  -1.587  -1.863  1.00  0.00     0.285 C 
HETATM   26  C2  UNL     1       8.453  -1.852  -0.607  1.00  0.00     0.285 C 
ENDBRANCH  23  24
ENDBRANCH  22  23
ENDBRANCH  21  22
ENDBRANCH  20  21
ENDBRANCH  18  20
ENDBRANCH  16  18
ENDBRANCH  11  16
ENDBRANCH   8  10
ENDBRANCH   1   7
BRANCH   6  27
HETATM   27  N5  UNL     1      -3.208   1.887   0.552  1.00  0.00    -0.337 N 
HETATM   28  C21 UNL     1      -3.935   1.133   1.540  1.00  0.00     0.102 C 
HETATM   29  C22 UNL     1      -5.338   1.755   1.600  1.00  0.00     0.024 C 
HETATM   30  C23 UNL     1      -5.957   1.840   0.242  1.00  0.00     0.005 C 
HETATM   31  C24 UNL     1      -5.074   2.393  -0.828  1.00  0.00     0.039 C 
HETATM   32  C25 UNL     1      -3.684   1.789  -0.807  1.00  0.00     0.190 C 
BRANCH  32  33
HETATM   33  S1  UNL     1      -3.741   0.128  -1.376  1.00  0.00     0.193 S 
HETATM   34  O6  UNL     1      -4.320   0.134  -2.778  1.00  0.00    -0.224 OA
HETATM   35  O7  UNL     1      -2.363  -0.451  -1.491  1.00  0.00    -0.224 OA
BRANCH  33  36
HETATM   36  C26 UNL     1      -4.818  -0.843  -0.371  1.00  0.00     0.151 C 
BRANCH  36  37
HETATM   37  C27 UNL     1      -4.913  -2.234  -0.786  1.00  0.00    -0.006 A 
HETATM   38  C28 UNL     1      -5.862  -2.630  -1.690  1.00  0.00    -0.003 A 
HETATM   39  C29 UNL     1      -5.983  -3.939  -2.107  1.00  0.00    -0.000 A 
HETATM   40  C30 UNL     1      -5.109  -4.867  -1.585  1.00  0.00    -0.000 A 
HETATM   41  C31 UNL     1      -4.155  -4.485  -0.681  1.00  0.00    -0.000 A 
HETATM   42  C32 UNL     1      -4.053  -3.172  -0.279  1.00  0.00    -0.003 A 
ENDBRANCH  36  37
ENDBRANCH  33  36
ENDBRANCH  32  33
ENDBRANCH   6  27
BRANCH   3  43
HETATM   43  C17 UNL     1       1.187   5.146   2.135  1.00  0.00     0.266 C 
HETATM   44  N4  UNL     1       1.135   6.567   2.068  1.00  0.00    -0.057 NA
HETATM   45  O5  UNL     1       2.239   4.617   2.561  1.00  0.00    -0.271 OA
ENDBRANCH   3  43
TORSDOF 14
