REMARK  3 active torsions:
REMARK  status: ('A' for Active; 'I' for Inactive)
REMARK    1  A    between atoms: O1_2  and  C2_3 
REMARK    2  A    between atoms: C5_6  and  N1_7 
REMARK    3  A    between atoms: C6_9  and  C7_10 
ROOT
HETATM    1  N1  UNL     1       1.293  -0.364  -0.590  1.00  0.00    -0.197 N 
HETATM    2  N2  UNL     1       0.698   0.765  -0.229  1.00  0.00    -0.159 NA
HETATM    3  C6  UNL     1      -0.152   1.350   0.485  1.00  0.00     0.146 C 
HETATM    4  C13 UNL     1      -1.022   0.735   1.501  1.00  0.00     0.232 C 
HETATM    5  O2  UNL     1      -0.624   1.083   2.704  1.00  0.00    -0.168 OA
HETATM    6  N3  UNL     1      -2.104  -0.084   1.477  1.00  0.00    -0.219 NA
HETATM    7  C14 UNL     1      -3.324  -0.345   0.923  1.00  0.00     0.088 A 
HETATM    8  C15 UNL     1      -4.503   0.427   0.943  1.00  0.00     0.019 A 
HETATM    9  C16 UNL     1      -5.683   0.112   0.394  1.00  0.00     0.002 A 
HETATM   10  C17 UNL     1      -5.806  -1.075  -0.269  1.00  0.00     0.000 A 
HETATM   11  C18 UNL     1      -4.735  -1.896  -0.349  1.00  0.00     0.006 A 
HETATM   12  C19 UNL     1      -3.503  -1.550   0.233  1.00  0.00     0.075 A 
HETATM   13  C20 UNL     1      -2.439  -2.539   0.055  1.00  0.00     0.277 C 
HETATM   14  O3  UNL     1      -2.732  -3.775   0.281  1.00  0.00    -0.266 OA
HETATM   15  N4  UNL     1      -1.156  -2.142  -0.344  1.00  0.00    -0.229 NA
HETATM   16  C21 UNL     1      -0.802  -1.443  -1.563  1.00  0.00     0.160 C 
HETATM   17  C22 UNL     1      -1.159  -2.226  -2.816  1.00  0.00     0.034 C 
HETATM   18  C23 UNL     1      -1.426  -0.099  -1.727  1.00  0.00     0.034 C 
HETATM   19  C24 UNL     1       0.666  -1.269  -1.484  1.00  0.00     0.277 C 
HETATM   20  O4  UNL     1       1.366  -1.995  -2.286  1.00  0.00    -0.268 OA
ENDROOT
BRANCH   1  21
HETATM   21  C5  UNL     1       2.632  -0.823  -0.188  1.00  0.00     0.086 A 
HETATM   22  C4  UNL     1       3.232  -0.406   0.971  1.00  0.00     0.021 A 
HETATM   23  C3  UNL     1       4.489  -0.845   1.279  1.00  0.00     0.026 A 
HETATM   24  C2  UNL     1       5.200  -1.702   0.471  1.00  0.00     0.094 A 
HETATM   25  C26 UNL     1       4.614  -2.132  -0.698  1.00  0.00     0.026 A 
HETATM   26  C25 UNL     1       3.348  -1.682  -0.998  1.00  0.00     0.021 A 
BRANCH  24  27
HETATM   27  O1  UNL     1       6.491  -2.137   0.813  1.00  0.00    -0.328 OA
HETATM   28  C1  UNL     1       7.131  -1.721   2.003  1.00  0.00     0.181 C 
ENDBRANCH  24  27
ENDBRANCH   1  21
BRANCH   3  29
HETATM   29  C7  UNL     1      -0.224   2.815   0.277  1.00  0.00     0.034 A 
HETATM   30  C8  UNL     1      -1.071   3.603   0.994  1.00  0.00     0.003 A 
HETATM   31  C9  UNL     1      -1.169   4.973   0.861  1.00  0.00     0.000 A 
HETATM   32  C10 UNL     1      -0.354   5.603  -0.064  1.00  0.00     0.001 A 
HETATM   33  C11 UNL     1       0.506   4.809  -0.793  1.00  0.00     0.011 A 
HETATM   34  C12 UNL     1       0.596   3.461  -0.655  1.00  0.00     0.059 A 
HETATM   35 CL1  UNL     1       1.727   2.515  -1.614  1.00  0.00    -0.082 Cl
ENDBRANCH   3  29
TORSDOF 3
