REMARK  8 active torsions:
REMARK  status: ('A' for Active; 'I' for Inactive)
REMARK    1  A    between atoms: N1_2  and  C3_4 
REMARK    2  A    between atoms: C4_5  and  N2_6 
REMARK    3  A    between atoms: N2_6  and  C5_7 
REMARK    4  A    between atoms: C10_12  and  C11_13 
REMARK    5  A    between atoms: C11_13  and  C12_14 
REMARK    6  A    between atoms: C12_14  and  S1_15 
REMARK    7  A    between atoms: S1_15  and  C13_16 
REMARK    8  A    between atoms: C13_16  and  C14_17 
ROOT
HETATM    1  C5  UNL     1      -1.946  -1.305   0.700  1.00  0.00     0.077 A 
HETATM    2  C6  UNL     1      -2.993  -1.989   0.115  1.00  0.00     0.019 A 
HETATM    3  C7  UNL     1      -2.724  -3.049  -0.715  1.00  0.00     0.002 A 
HETATM    4  C8  UNL     1      -1.436  -3.474  -0.998  1.00  0.00    -0.000 A 
HETATM    5  C9  UNL     1      -0.399  -2.773  -0.400  1.00  0.00    -0.003 A 
HETATM    6  C10 UNL     1      -0.627  -1.712   0.432  1.00  0.00    -0.004 A 
ENDROOT
BRANCH   6   7
HETATM    7  C11 UNL     1       0.429  -0.917   1.110  1.00  0.00     0.040 C 
BRANCH   7   8
HETATM    8  C12 UNL     1       0.658   0.420   0.485  1.00  0.00     0.063 C 
BRANCH   8   9
HETATM    9  S1  UNL     1       1.173   0.372  -1.232  1.00  0.00    -0.135 SA
BRANCH   9  10
HETATM   10  C13 UNL     1       2.838  -0.359  -1.412  1.00  0.00     0.084 C 
BRANCH  10  11
HETATM   11  C14 UNL     1       3.787   0.588  -0.757  1.00  0.00    -0.011 A 
HETATM   12  C15 UNL     1       4.371   1.607  -1.460  1.00  0.00    -0.003 A 
HETATM   13  C16 UNL     1       5.238   2.458  -0.821  1.00  0.00    -0.000 A 
HETATM   14  C17 UNL     1       5.537   2.312   0.520  1.00  0.00    -0.000 A 
HETATM   15  C18 UNL     1       4.931   1.273   1.202  1.00  0.00    -0.000 A 
HETATM   16  C19 UNL     1       4.065   0.422   0.567  1.00  0.00    -0.003 A 
ENDBRANCH  10  11
ENDBRANCH   9  10
ENDBRANCH   8   9
ENDBRANCH   7   8
ENDBRANCH   6   7
BRANCH   1  17
HETATM   17  N2  UNL     1      -2.200  -0.243   1.575  1.00  0.00    -0.243 NA
BRANCH  17  18
HETATM   18  C4  UNL     1      -3.339   0.429   1.964  1.00  0.00     0.111 C 
HETATM   19  C3  UNL     1      -4.019   1.430   1.184  1.00  0.00     0.068 C 
BRANCH  19  20
HETATM   20  N1  UNL     1      -4.528   1.187  -0.105  1.00  0.00    -0.248 NA
HETATM   21  C1  UNL     1      -3.439   1.041  -1.050  1.00  0.00     0.094 C 
HETATM   22  C2  UNL     1      -5.374   2.284  -0.541  1.00  0.00     0.094 C 
ENDBRANCH  19  20
ENDBRANCH  17  18
ENDBRANCH   1  17
TORSDOF 8
