REMARK  8 active torsions:
REMARK  status: ('A' for Active; 'I' for Inactive)
REMARK    1  A    between atoms: O1_2  and  C2_3 
REMARK    2  A    between atoms: C7_8  and  C8_9 
REMARK    3  A    between atoms: C8_9  and  N1_10 
REMARK    4  A    between atoms: N1_10  and  C9_11 
REMARK       I    between atoms: N1_10  and  C21_26 
REMARK    5  A    between atoms: C9_11  and  C10_12 
REMARK       I    between atoms: C10_12  and  N2_14 
REMARK       I    between atoms: C21_26  and  N3_28 
REMARK       I    between atoms: N3_28  and  C22_29 
REMARK    6  A    between atoms: C22_29  and  C23_31 
REMARK    7  A    between atoms: C23_31  and  O6_32 
REMARK    8  A    between atoms: O6_32  and  C24_33 
ROOT
HETATM    1  N1  UNL     1      -0.659  -1.259   0.807  1.00  0.00    -0.270 N 
HETATM    2  C21 UNL     1       0.686  -0.766   0.984  1.00  0.00     0.353 C 
HETATM    3  O4  UNL     1       1.650  -1.530   1.252  1.00  0.00    -0.244 OA
HETATM    4  N3  UNL     1       0.980   0.623   0.861  1.00  0.00    -0.155 NA
HETATM    5  C22 UNL     1       2.305   1.144   1.031  1.00  0.00     0.290 C 
HETATM    6  O5  UNL     1       3.219   0.330   1.296  1.00  0.00    -0.267 OA
ENDROOT
BRANCH   1   7
HETATM    7  C8  UNL     1      -0.872  -2.655   0.945  1.00  0.00     0.140 C 
BRANCH   7   8
HETATM    8  C7  UNL     1      -0.728  -3.517  -0.217  1.00  0.00     0.023 A 
HETATM    9  C2  UNL     1      -0.977  -4.880   0.009  1.00  0.00     0.092 A 
HETATM   10  C3  UNL     1      -0.858  -5.795  -0.999  1.00  0.00     0.024 A 
HETATM   11  C4  UNL     1      -0.488  -5.393  -2.268  1.00  0.00     0.002 A 
HETATM   12  C5  UNL     1      -0.238  -4.038  -2.501  1.00  0.00    -0.000 A 
HETATM   13  C6  UNL     1      -0.366  -3.150  -1.472  1.00  0.00    -0.000 A 
BRANCH   9  14
HETATM   14  O1  UNL     1      -1.351  -5.326   1.271  1.00  0.00    -0.328 OA
HETATM   15  C1  UNL     1      -1.615  -6.662   1.573  1.00  0.00     0.181 C 
ENDBRANCH   9  14
ENDBRANCH   7   8
ENDBRANCH   1   7
BRANCH   1  16
HETATM   16  C9  UNL     1      -1.715  -0.342   0.587  1.00  0.00     0.141 C 
BRANCH  16  17
HETATM   17  C10 UNL     1      -2.034   0.098  -0.745  1.00  0.00     0.278 C 
HETATM   18  O2  UNL     1      -1.445  -0.240  -1.798  1.00  0.00    -0.265 OA
HETATM   19  N2  UNL     1      -3.135   1.021  -0.932  1.00  0.00    -0.295 N 
HETATM   20  C11 UNL     1      -3.428   1.443  -2.287  1.00  0.00     0.112 C 
HETATM   21  C20 UNL     1      -3.798   1.401   0.247  1.00  0.00     0.059 A 
HETATM   22  C12 UNL     1      -4.920   1.366  -2.523  1.00  0.00     0.058 C 
HETATM   23  C13 UNL     1      -5.516   2.636  -1.928  1.00  0.00     0.159 C 
HETATM   24  O3  UNL     1      -4.588   3.653  -1.820  1.00  0.00    -0.223 OA
HETATM   25  C14 UNL     1      -6.087   2.282  -0.595  1.00  0.00     0.061 C 
HETATM   26  C15 UNL     1      -5.063   1.944   0.422  1.00  0.00    -0.004 A 
HETATM   27  C16 UNL     1      -5.564   2.264   1.670  1.00  0.00    -0.003 A 
HETATM   28  C17 UNL     1      -4.793   2.042   2.792  1.00  0.00    -0.000 A 
HETATM   29  C18 UNL     1      -3.540   1.506   2.640  1.00  0.00     0.002 A 
HETATM   30  C19 UNL     1      -3.056   1.193   1.387  1.00  0.00     0.017 A 
ENDBRANCH  16  17
ENDBRANCH   1  16
BRANCH   5  31
HETATM   31  C23 UNL     1       2.606   2.585   0.902  1.00  0.00     0.238 C 
BRANCH  31  32
HETATM   32  O6  UNL     1       3.988   2.771   1.100  1.00  0.00    -0.320 OA
BRANCH  32  33
HETATM   33  C24 UNL     1       4.932   2.180   0.280  1.00  0.00     0.106 A 
HETATM   34  C25 UNL     1       4.647   1.369  -0.796  1.00  0.00     0.025 A 
HETATM   35  C26 UNL     1       5.627   0.804  -1.584  1.00  0.00     0.003 A 
HETATM   36  C27 UNL     1       6.951   1.053  -1.295  1.00  0.00     0.012 A 
HETATM   37  C28 UNL     1       7.285   1.859  -0.228  1.00  0.00     0.070 A 
HETATM   38 CL1  UNL     1       8.975   2.153   0.109  1.00  0.00    -0.081 Cl
HETATM   39  C29 UNL     1       6.277   2.407   0.538  1.00  0.00     0.090 A 
HETATM   40 CL2  UNL     1       6.704   3.430   1.894  1.00  0.00    -0.079 Cl
ENDBRANCH  32  33
ENDBRANCH  31  32
ENDBRANCH   5  31
TORSDOF 8
