REMARK  6 active torsions:
REMARK  status: ('A' for Active; 'I' for Inactive)
REMARK    1  A    between atoms: N1_2  and  C2_3 
REMARK       I    between atoms: N1_2  and  C24_29 
REMARK    2  A    between atoms: C3_4  and  N2_5 
REMARK       I    between atoms: N2_5  and  C4_6 
REMARK    3  A    between atoms: C4_6  and  C5_8 
REMARK    4  A    between atoms: C5_8  and  N3_9 
REMARK    5  A    between atoms: C14_18  and  C15_19 
REMARK    6  A    between atoms: C24_29  and  C25_31 
ROOT
HETATM    1  N3  UNL     1      -0.852  -0.549   1.014  1.00  0.00     0.149 N 
HETATM    2  C6  UNL     1      -1.221  -1.238   2.238  1.00  0.00     0.277 C 
HETATM    3  C7  UNL     1      -1.733  -2.577   1.778  1.00  0.00     0.007 A 
HETATM    4  C8  UNL     1      -1.376  -3.722   2.480  1.00  0.00    -0.003 A 
HETATM    5  C9  UNL     1      -1.870  -4.917   2.003  1.00  0.00    -0.000 A 
HETATM    6  C10 UNL     1      -2.676  -4.973   0.886  1.00  0.00    -0.000 A 
HETATM    7  C11 UNL     1      -3.019  -3.842   0.204  1.00  0.00    -0.004 A 
HETATM    8  C12 UNL     1      -2.530  -2.616   0.671  1.00  0.00    -0.022 A 
HETATM    9  C13 UNL     1      -2.893  -1.377  -0.042  1.00  0.00     0.059 C 
HETATM   10  C14 UNL     1      -2.050  -0.199   0.267  1.00  0.00     0.226 C 
ENDROOT
BRANCH   1  11
HETATM   11  C5  UNL     1       0.048   0.531   1.219  1.00  0.00     0.339 C 
BRANCH  11  12
HETATM   12  C4  UNL     1       0.447   1.170  -0.065  1.00  0.00     0.290 C 
HETATM   13  N2  UNL     1       1.334   2.254  -0.033  1.00  0.00    -0.207 NA
HETATM   14  O1  UNL     1       0.003   0.751  -1.154  1.00  0.00    -0.268 OA
BRANCH  13  15
HETATM   15  C3  UNL     1       1.852   2.992  -1.073  1.00  0.00     0.121 C 
HETATM   16  C2  UNL     1       2.714   2.508  -2.111  1.00  0.00     0.099 C 
BRANCH  16  17
HETATM   17  N1  UNL     1       2.306   1.446  -2.955  1.00  0.00    -0.291 N 
HETATM   18  C1  UNL     1       1.491   1.817  -4.125  1.00  0.00     0.134 C 
HETATM   19  C24 UNL     1       2.594   0.079  -2.757  1.00  0.00     0.261 C 
HETATM   20  O2  UNL     1       2.136  -0.763  -3.567  1.00  0.00    -0.267 OA
BRANCH  19  21
HETATM   21  C25 UNL     1       3.410  -0.356  -1.632  1.00  0.00     0.056 A 
HETATM   22  C26 UNL     1       3.662  -1.721  -1.448  1.00  0.00     0.006 A 
HETATM   23  C27 UNL     1       4.440  -2.163  -0.398  1.00  0.00     0.019 A 
HETATM   24  C28 UNL     1       5.000  -1.295   0.510  1.00  0.00     0.081 A 
HETATM   25  N5  UNL     1       5.762  -1.708   1.541  1.00  0.00    -0.244 NA
HETATM   26  C32 UNL     1       4.761   0.053   0.343  1.00  0.00     0.018 A 
HETATM   27  C29 UNL     1       6.310  -0.860   2.429  1.00  0.00     0.099 A 
HETATM   28  C30 UNL     1       6.098   0.506   2.303  1.00  0.00     0.021 A 
HETATM   29  C31 UNL     1       5.319   0.931   1.249  1.00  0.00     0.003 A 
HETATM   30  C33 UNL     1       3.981   0.484  -0.712  1.00  0.00     0.006 A 
ENDBRANCH  19  21
ENDBRANCH  16  17
ENDBRANCH  13  15
ENDBRANCH  11  12
ENDBRANCH   1  11
BRANCH  10  31
HETATM   31  C15 UNL     1      -2.835   0.889   0.988  1.00  0.00     0.063 C 
HETATM   32  C16 UNL     1      -1.965   2.092   1.118  1.00  0.00     0.006 C 
HETATM   33  C17 UNL     1      -2.812   3.319   1.350  1.00  0.00     0.035 C 
HETATM   34  C18 UNL     1      -3.808   3.532   0.248  1.00  0.00     0.250 C 
HETATM   35  N4  UNL     1      -4.171   2.335  -0.448  1.00  0.00     0.135 N 
HETATM   36  C19 UNL     1      -5.417   2.465  -1.144  1.00  0.00     0.250 C 
HETATM   37  C23 UNL     1      -4.155   1.150   0.350  1.00  0.00     0.221 C 
HETATM   38  C20 UNL     1      -6.382   1.345  -0.832  1.00  0.00     0.035 C 
HETATM   39  C21 UNL     1      -6.622   1.189   0.649  1.00  0.00     0.004 C 
HETATM   40  C22 UNL     1      -5.279   1.038   1.324  1.00  0.00     0.033 C 
ENDBRANCH  10  31
TORSDOF 6
