REMARK  10 active torsions:
REMARK  status: ('A' for Active; 'I' for Inactive)
REMARK    1  A    between atoms: C2_2  and  C5_5 
REMARK    2  A    between atoms: C8_8  and  N1_9 
REMARK    3  A    between atoms: N3_20  and  C17_21 
REMARK    4  A    between atoms: C22_26  and  C23_27 
REMARK       I    between atoms: C23_27  and  N4_29 
REMARK    5  A    between atoms: N4_29  and  C24_30 
REMARK    6  A    between atoms: C24_30  and  C25_31 
REMARK    7  A    between atoms: C25_31  and  C26_32 
REMARK    8  A    between atoms: C26_32  and  C27_33 
REMARK    9  A    between atoms: C27_33  and  N5_34 
REMARK   10  A    between atoms: C29_36  and  C30_37 
ROOT
HETATM    1  C17 UNL     1      -1.721  -0.073  -3.502  1.00  0.00     0.088 A 
HETATM    2  C18 UNL     1      -2.756  -0.457  -4.337  1.00  0.00     0.019 A 
HETATM    3  C19 UNL     1      -2.529  -0.481  -5.695  1.00  0.00     0.002 A 
HETATM    4  C20 UNL     1      -1.323  -0.141  -6.260  1.00  0.00     0.000 A 
HETATM    5  C21 UNL     1      -0.309   0.238  -5.406  1.00  0.00     0.006 A 
HETATM    6  C22 UNL     1      -0.497   0.275  -4.043  1.00  0.00     0.075 A 
ENDROOT
BRANCH   1   7
HETATM    7  N3  UNL     1      -1.840  -0.013  -2.101  1.00  0.00    -0.228 NA
HETATM    8  C16 UNL     1      -2.258   0.932  -1.378  1.00  0.00     0.148 A 
HETATM    9  N1  UNL     1      -2.270   0.728  -0.036  1.00  0.00    -0.279 N 
HETATM   10  C15 UNL     1      -2.702   2.149  -1.854  1.00  0.00     0.057 A 
HETATM   11  C9  UNL     1      -2.702   1.691   0.773  1.00  0.00     0.275 A 
HETATM   12  N2  UNL     1      -2.716   1.502   2.056  1.00  0.00    -0.101 N 
HETATM   13  O1  UNL     1      -3.125   2.854   0.312  1.00  0.00    -0.275 OA
HETATM   14  C10 UNL     1      -3.143   3.125  -0.977  1.00  0.00     0.106 A 
HETATM   15  C11 UNL     1      -3.595   4.354  -1.394  1.00  0.00     0.025 A 
HETATM   16  C12 UNL     1      -3.589   4.580  -2.775  1.00  0.00     0.002 A 
HETATM   17  C13 UNL     1      -3.152   3.618  -3.665  1.00  0.00     0.000 A 
HETATM   18  C14 UNL     1      -2.701   2.385  -3.206  1.00  0.00     0.005 A 
BRANCH   9  19
HETATM   19  C8  UNL     1      -1.815  -0.531   0.513  1.00  0.00     0.090 C 
HETATM   20  C7  UNL     1      -1.643  -1.598  -0.528  1.00  0.00     0.023 C 
HETATM   21  C6  UNL     1      -2.347  -2.822  -0.014  1.00  0.00     0.002 C 
HETATM   22  C5  UNL     1      -3.303  -2.356   1.054  1.00  0.00     0.002 C 
HETATM   23  C37 UNL     1      -2.836  -1.008   1.503  1.00  0.00     0.023 C 
BRANCH  22  24
HETATM   24  C2  UNL     1      -4.732  -2.309   0.565  1.00  0.00     0.000 C 
HETATM   25  C1  UNL     1      -4.839  -1.347  -0.612  1.00  0.00     0.000 C 
HETATM   26  C3  UNL     1      -5.592  -1.742   1.674  1.00  0.00     0.000 C 
HETATM   27  C4  UNL     1      -5.266  -3.651   0.197  1.00  0.00     0.000 C 
ENDBRANCH  22  24
ENDBRANCH   9  19
ENDBRANCH   1   7
BRANCH   6  28
HETATM   28  C23 UNL     1       0.604   0.685  -3.171  1.00  0.00     0.276 C 
HETATM   29  O2  UNL     1       1.716   1.001  -3.680  1.00  0.00    -0.266 OA
HETATM   30  N4  UNL     1       0.507   0.752  -1.768  1.00  0.00    -0.234 NA
BRANCH  30  31
HETATM   31  C24 UNL     1       1.575   1.154  -0.877  1.00  0.00     0.129 C 
BRANCH  31  32
HETATM   32  C25 UNL     1       2.788   0.258  -0.990  1.00  0.00     0.029 C 
BRANCH  32  33
HETATM   33  C26 UNL     1       2.400  -1.178  -0.638  1.00  0.00     0.029 C 
BRANCH  33  34
HETATM   34  C27 UNL     1       1.863  -1.275   0.767  1.00  0.00     0.128 C 
BRANCH  34  35
HETATM   35  N5  UNL     1       2.827  -0.844   1.750  1.00  0.00    -0.250 N 
HETATM   36  C28 UNL     1       3.766  -1.550   2.414  1.00  0.00     0.097 A 
HETATM   37  C29 UNL     1       4.447  -0.680   3.258  1.00  0.00     0.042 A 
HETATM   38  C36 UNL     1       3.879   0.550   3.069  1.00  0.00     0.122 A 
HETATM   39  N6  UNL     1       2.912   0.419   2.161  1.00  0.00    -0.168 NA
BRANCH  37  40
HETATM   40  C30 UNL     1       5.535  -0.938   4.174  1.00  0.00     0.030 A 
HETATM   41  C31 UNL     1       5.483  -0.397   5.449  1.00  0.00     0.002 A 
HETATM   42  C32 UNL     1       6.490  -0.607   6.366  1.00  0.00     0.000 A 
HETATM   43  C33 UNL     1       7.558  -1.377   5.977  1.00  0.00     0.002 A 
HETATM   44  C34 UNL     1       7.628  -1.920   4.722  1.00  0.00     0.030 A 
HETATM   45  C35 UNL     1       6.612  -1.702   3.811  1.00  0.00     0.140 A 
HETATM   46  F1  UNL     1       6.712  -2.253   2.581  1.00  0.00    -0.204 F 
ENDBRANCH  37  40
ENDBRANCH  34  35
ENDBRANCH  33  34
ENDBRANCH  32  33
ENDBRANCH  31  32
ENDBRANCH  30  31
ENDBRANCH   6  28
TORSDOF 10
