REMARK  5 active torsions:
REMARK  status: ('A' for Active; 'I' for Inactive)
REMARK    1  A    between atoms: C2_2  and  C3_3 
REMARK    2  A    between atoms: C3_3  and  C4_4 
REMARK    3  A    between atoms: C15_17  and  C16_18 
REMARK    4  A    between atoms: C16_18  and  C17_20 
REMARK    5  A    between atoms: C17_20  and  C18_21 
ROOT
HETATM    1  C4  UNL     1       2.747  -0.565  -0.244  1.00  0.00     0.035 C 
HETATM    2  C5  UNL     1       2.124   0.017   0.975  1.00  0.00     0.003 C 
HETATM    3  C6  UNL     1       1.508   1.361   0.798  1.00  0.00     0.007 C 
HETATM    4  C7  UNL     1       0.105   1.175   0.224  1.00  0.00     0.055 C 
HETATM    5  C8  UNL     1      -0.408   2.555  -0.030  1.00  0.00     0.028 A 
HETATM    6  C9  UNL     1       0.151   3.620  -0.723  1.00  0.00     0.129 A 
HETATM    7  O1  UNL     1       1.405   3.431  -1.304  1.00  0.00    -0.190 OA
HETATM    8  C10 UNL     1      -0.489   4.833  -0.848  1.00  0.00     0.027 A 
HETATM    9  C11 UNL     1      -1.717   4.996  -0.270  1.00  0.00     0.004 A 
HETATM   10  C12 UNL     1      -2.280   3.949   0.417  1.00  0.00     0.024 A 
HETATM   11  C13 UNL     1      -1.637   2.709   0.551  1.00  0.00     0.092 A 
HETATM   12  O2  UNL     1      -1.965   1.524   1.168  1.00  0.00    -0.333 OA
HETATM   13  C14 UNL     1      -0.856   0.693   1.256  1.00  0.00     0.136 C 
HETATM   14  C15 UNL     1      -1.264  -0.739   1.093  1.00  0.00     0.107 C 
HETATM   15  C21 UNL     1      -0.224  -1.575   0.460  1.00  0.00    -0.021 C 
HETATM   16  C22 UNL     1       0.865  -1.995   1.083  1.00  0.00    -0.028 C 
HETATM   17  C23 UNL     1       1.908  -2.823   0.476  1.00  0.00     0.046 C 
HETATM   18  C24 UNL     1       1.352  -3.527  -0.756  1.00  0.00     0.007 C 
HETATM   19  C25 UNL     1       2.392  -3.921   1.418  1.00  0.00     0.007 C 
HETATM   20  C26 UNL     1       3.100  -2.019   0.013  1.00  0.00     0.156 C 
HETATM   21  O4  UNL     1       4.114  -2.158   0.939  1.00  0.00    -0.223 OA
ENDROOT
BRANCH  14  22
HETATM   22  C16 UNL     1      -2.595  -0.901   0.465  1.00  0.00     0.157 C 
HETATM   23  O3  UNL     1      -3.219   0.092   0.146  1.00  0.00    -0.296 OA
BRANCH  22  24
HETATM   24  C17 UNL     1      -3.149  -2.259   0.232  1.00  0.00     0.065 C 
BRANCH  24  25
HETATM   25  C18 UNL     1      -4.515  -2.169  -0.416  1.00  0.00     0.007 C 
HETATM   26  C19 UNL     1      -5.101  -3.525  -0.664  1.00  0.00     0.000 C 
HETATM   27  C20 UNL     1      -5.443  -1.270   0.367  1.00  0.00     0.000 C 
ENDBRANCH  24  25
ENDBRANCH  22  24
ENDBRANCH  14  22
BRANCH   1  28
HETATM   28  C3  UNL     1       4.053   0.157  -0.505  1.00  0.00     0.029 C 
BRANCH  28  29
HETATM   29  C2  UNL     1       4.750  -0.347  -1.695  1.00  0.00    -0.026 C 
HETATM   30  C1  UNL     1       4.290  -1.320  -2.453  1.00  0.00    -0.005 C 
ENDBRANCH  28  29
ENDBRANCH   1  28
TORSDOF 5
