REMARK  9 active torsions:
REMARK  status: ('A' for Active; 'I' for Inactive)
REMARK    1  A    between atoms: C4_5  and  C5_6 
REMARK    2  A    between atoms: C5_6  and  C6_7 
REMARK    3  A    between atoms: C5_6  and  N4_22 
REMARK       I    between atoms: C6_7  and  N2_9 
REMARK    4  A    between atoms: C12_15  and  C13_16 
REMARK    5  A    between atoms: C20_25  and  C21_26 
REMARK    6  A    between atoms: C21_26  and  C22_27 
REMARK       I    between atoms: N5_35  and  C30_36 
REMARK    7  A    between atoms: C30_36  and  C31_38 
REMARK    8  A    between atoms: C31_38  and  C32_39 
REMARK    9  A    between atoms: C32_39  and  C33_40 
ROOT
HETATM    1  N4  UNL     1       1.183   0.283   0.122  1.00  0.00    -0.188 NA
HETATM    2  C18 UNL     1       1.093   1.705   0.251  1.00  0.00     0.095 C 
HETATM    3  C19 UNL     1       2.458   2.360   0.278  1.00  0.00     0.020 C 
HETATM    4  C20 UNL     1       2.919   2.595   1.703  1.00  0.00     0.008 C 
HETATM    5  C28 UNL     1       3.485   1.265   2.186  1.00  0.00     0.026 C 
HETATM    6  C29 UNL     1       2.402   0.261   2.409  1.00  0.00     0.123 C 
HETATM    7  N5  UNL     1       1.911  -0.314   1.144  1.00  0.00    -0.261 N 
HETATM    8  C30 UNL     1       2.266  -1.676   1.003  1.00  0.00     0.247 C 
HETATM    9  O2  UNL     1       2.918  -2.242   1.895  1.00  0.00    -0.271 OA
ENDROOT
BRANCH   1  10
HETATM   10  C5  UNL     1      -0.100  -0.324  -0.136  1.00  0.00     0.156 C 
BRANCH  10  11
HETATM   11  C4  UNL     1      -0.994  -0.038   1.039  1.00  0.00     0.030 C 
HETATM   12  C3  UNL     1      -0.368  -0.508   2.346  1.00  0.00     0.037 C 
HETATM   13  C2  UNL     1      -1.446  -0.370   3.400  1.00  0.00     0.250 C 
HETATM   14  N1  UNL     1      -1.854   1.008   3.563  1.00  0.00     0.139 N 
HETATM   15  C1  UNL     1      -2.861   1.183   4.561  1.00  0.00     0.285 C 
HETATM   16  C40 UNL     1      -2.262   1.614   2.314  1.00  0.00     0.250 C 
HETATM   17  C39 UNL     1      -1.247   1.441   1.226  1.00  0.00     0.037 C 
ENDBRANCH  10  11
BRANCH  10  18
HETATM   18  C6  UNL     1      -0.671   0.110  -1.434  1.00  0.00     0.250 C 
HETATM   19  O1  UNL     1       0.022   0.971  -2.087  1.00  0.00    -0.271 OA
HETATM   20  N2  UNL     1      -1.895  -0.378  -1.940  1.00  0.00    -0.316 N 
HETATM   21  C7  UNL     1      -2.580  -1.323  -1.115  1.00  0.00     0.104 C 
HETATM   22  C12 UNL     1      -2.286   0.129  -3.228  1.00  0.00     0.124 C 
HETATM   23  C8  UNL     1      -3.548  -0.595  -0.218  1.00  0.00     0.024 C 
HETATM   24  C9  UNL     1      -3.948   0.756  -0.699  1.00  0.00     0.002 C 
HETATM   25  C10 UNL     1      -4.324   0.843  -2.142  1.00  0.00     0.002 C 
HETATM   26  C11 UNL     1      -3.151   1.348  -2.994  1.00  0.00     0.029 C 
BRANCH  22  27
HETATM   27  C13 UNL     1      -3.064  -0.838  -4.018  1.00  0.00     0.079 A 
HETATM   28  C14 UNL     1      -4.195  -0.450  -4.702  1.00  0.00     0.017 A 
HETATM   29  C15 UNL     1      -4.943  -1.351  -5.451  1.00  0.00     0.003 A 
HETATM   30  C16 UNL     1      -4.570  -2.671  -5.533  1.00  0.00     0.021 A 
HETATM   31  C17 UNL     1      -3.428  -3.034  -4.836  1.00  0.00     0.099 A 
HETATM   32  N3  UNL     1      -2.716  -2.149  -4.115  1.00  0.00    -0.246 NA
ENDBRANCH  22  27
ENDBRANCH  10  18
ENDBRANCH   1  10
BRANCH   8  33
HETATM   33  C31 UNL     1       1.872  -2.443  -0.197  1.00  0.00     0.094 C 
BRANCH  33  34
HETATM   34  C32 UNL     1       2.315  -3.854  -0.235  1.00  0.00     0.036 C 
BRANCH  34  35
HETATM   35  C33 UNL     1       1.837  -4.723   0.839  1.00  0.00    -0.022 A 
HETATM   36  C34 UNL     1       2.465  -4.948   2.026  1.00  0.00    -0.004 A 
HETATM   37  C35 UNL     1       1.878  -5.813   2.954  1.00  0.00    -0.000 A 
HETATM   38  C36 UNL     1       0.680  -6.445   2.695  1.00  0.00    -0.000 A 
HETATM   39  C37 UNL     1       0.031  -6.227   1.495  1.00  0.00    -0.000 A 
HETATM   40  C38 UNL     1       0.625  -5.376   0.604  1.00  0.00    -0.004 A 
ENDBRANCH  34  35
ENDBRANCH  33  34
ENDBRANCH   8  33
BRANCH   4  41
HETATM   41  C21 UNL     1       4.046   3.584   1.712  1.00  0.00     0.026 C 
BRANCH  41  42
HETATM   42  C22 UNL     1       3.671   4.898   1.144  1.00  0.00    -0.022 A 
HETATM   43  C23 UNL     1       3.155   5.908   1.909  1.00  0.00    -0.004 A 
HETATM   44  C24 UNL     1       2.827   7.112   1.314  1.00  0.00    -0.000 A 
HETATM   45  C25 UNL     1       3.008   7.330  -0.052  1.00  0.00    -0.000 A 
HETATM   46  C26 UNL     1       3.525   6.302  -0.793  1.00  0.00    -0.000 A 
HETATM   47  C27 UNL     1       3.861   5.082  -0.208  1.00  0.00    -0.004 A 
ENDBRANCH  41  42
ENDBRANCH   4  41
TORSDOF 9
