REMARK  13 active torsions:
REMARK  status: ('A' for Active; 'I' for Inactive)
REMARK    1  A    between atoms: O1_2  and  C2_3 
REMARK    2  A    between atoms: C7_8  and  C8_9 
REMARK    3  A    between atoms: C8_9  and  N1_10 
REMARK       I    between atoms: N2_13  and  C11_14 
REMARK    4  A    between atoms: C11_14  and  C12_16 
REMARK    5  A    between atoms: C12_16  and  C13_17 
REMARK    6  A    between atoms: C12_16  and  C29_39 
REMARK    7  A    between atoms: C13_17  and  N3_18 
REMARK       I    between atoms: N3_18  and  C14_19 
REMARK    8  A    between atoms: C14_19  and  C15_21 
REMARK    9  A    between atoms: C18_25  and  C19_26 
REMARK   10  A    between atoms: C19_26  and  N5_27 
REMARK   11  A    between atoms: C34_44  and  C35_45 
REMARK       I    between atoms: C35_45  and  N7_47 
REMARK   12  A    between atoms: N7_47  and  C36_48 
REMARK   13  A    between atoms: C36_48  and  C37_49 
ROOT
HETATM    1  C12 UNL     1      -1.843   1.088   0.723  1.00  0.00     0.104 C 
ENDROOT
BRANCH   1   2
HETATM    2  C11 UNL     1      -2.071  -0.085  -0.115  1.00  0.00     0.235 C 
HETATM    3  N2  UNL     1      -1.628  -1.367   0.279  1.00  0.00    -0.316 N 
HETATM    4  C10 UNL     1      -0.971  -1.561   1.524  1.00  0.00     0.140 C 
HETATM    5  C43 UNL     1      -1.860  -2.491  -0.622  1.00  0.00     0.140 C 
HETATM    6  C9  UNL     1      -1.308  -2.835   2.231  1.00  0.00     0.275 C 
HETATM    7  N1  UNL     1      -1.775  -3.858   1.347  1.00  0.00     0.145 N 
HETATM    8  C44 UNL     1      -1.273  -3.746  -0.000  1.00  0.00     0.275 C 
HETATM    9  O2  UNL     1      -2.682   0.037  -1.232  1.00  0.00    -0.272 OA
BRANCH   7  10
HETATM   10  C8  UNL     1      -3.219  -3.789   1.290  1.00  0.00     0.279 C 
BRANCH  10  11
HETATM   11  C7  UNL     1      -3.784  -4.813   0.396  1.00  0.00     0.033 A 
HETATM   12  C2  UNL     1      -5.174  -4.862   0.246  1.00  0.00     0.092 A 
HETATM   13  C3  UNL     1      -5.693  -5.825  -0.594  1.00  0.00     0.024 A 
HETATM   14  C4  UNL     1      -4.916  -6.729  -1.283  1.00  0.00     0.002 A 
HETATM   15  C5  UNL     1      -3.552  -6.666  -1.123  1.00  0.00    -0.000 A 
HETATM   16  C6  UNL     1      -3.007  -5.713  -0.290  1.00  0.00    -0.000 A 
BRANCH  12  17
HETATM   17  O1  UNL     1      -5.993  -3.978   0.916  1.00  0.00    -0.328 OA
HETATM   18  C1  UNL     1      -7.391  -4.073   0.726  1.00  0.00     0.181 C 
ENDBRANCH  12  17
ENDBRANCH  10  11
ENDBRANCH   7  10
ENDBRANCH   1   2
BRANCH   1  19
HETATM   19  C13 UNL     1      -0.451   1.640   0.647  1.00  0.00     0.138 C 
BRANCH  19  20
HETATM   20  N3  UNL     1       0.501   0.674   1.058  1.00  0.00    -0.234 NA
HETATM   21  C14 UNL     1       1.881   0.979   1.064  1.00  0.00     0.276 C 
HETATM   22  O3  UNL     1       2.250   2.112   0.702  1.00  0.00    -0.266 OA
BRANCH  21  23
HETATM   23  C15 UNL     1       2.843  -0.020   1.487  1.00  0.00     0.076 A 
HETATM   24  C16 UNL     1       2.418  -1.264   1.925  1.00  0.00     0.104 A 
HETATM   25  N4  UNL     1       3.259  -2.231   2.330  1.00  0.00    -0.243 NA
HETATM   26  C17 UNL     1       4.593  -1.987   2.313  1.00  0.00     0.097 A 
HETATM   27  C18 UNL     1       5.092  -0.776   1.891  1.00  0.00     0.020 A 
HETATM   28  C28 UNL     1       4.205   0.196   1.482  1.00  0.00     0.005 A 
BRANCH  27  29
HETATM   29  C19 UNL     1       6.542  -0.461   1.854  1.00  0.00     0.139 C 
BRANCH  29  30
HETATM   30  N5  UNL     1       7.144  -0.816   0.597  1.00  0.00    -0.274 N 
HETATM   31  C20 UNL     1       7.197   0.057  -0.421  1.00  0.00     0.181 A 
HETATM   32  N6  UNL     1       7.769  -0.283  -1.610  1.00  0.00    -0.225 NA
HETATM   33  C21 UNL     1       8.300  -1.519  -1.793  1.00  0.00     0.088 A 
HETATM   34  C22 UNL     1       8.885  -1.872  -3.003  1.00  0.00     0.019 A 
HETATM   35  C26 UNL     1       8.236  -2.401  -0.736  1.00  0.00     0.074 A 
HETATM   36  C23 UNL     1       9.405  -3.144  -3.120  1.00  0.00     0.002 A 
HETATM   37  C24 UNL     1       9.335  -4.014  -2.059  1.00  0.00     0.000 A 
HETATM   38  C25 UNL     1       8.761  -3.685  -0.854  1.00  0.00     0.006 A 
HETATM   39  C27 UNL     1       7.654  -2.054   0.474  1.00  0.00     0.264 A 
HETATM   40  O4  UNL     1       7.606  -2.882   1.433  1.00  0.00    -0.267 OA
ENDBRANCH  29  30
ENDBRANCH  27  29
ENDBRANCH  21  23
ENDBRANCH  19  20
ENDBRANCH   1  19
BRANCH   1  41
HETATM   41  C29 UNL     1      -2.811   2.218   0.503  1.00  0.00     0.020 C 
HETATM   42  C30 UNL     1      -4.233   1.835   0.768  1.00  0.00     0.001 C 
HETATM   43  C31 UNL     1      -4.568   1.785   2.238  1.00  0.00     0.000 C 
HETATM   44  C32 UNL     1      -4.311   3.158   2.814  1.00  0.00     0.001 C 
HETATM   45  C33 UNL     1      -2.816   3.397   2.719  1.00  0.00     0.009 C 
HETATM   46  C34 UNL     1      -2.337   3.397   1.294  1.00  0.00     0.081 C 
BRANCH  46  47
HETATM   47  C35 UNL     1      -2.618   4.682   0.607  1.00  0.00     0.251 C 
HETATM   48  O5  UNL     1      -3.330   5.520   1.174  1.00  0.00    -0.271 OA
HETATM   49  N7  UNL     1      -2.073   4.932  -0.676  1.00  0.00    -0.233 NA
BRANCH  49  50
HETATM   50  C36 UNL     1      -2.322   6.158  -1.367  1.00  0.00     0.157 C 
BRANCH  50  51
HETATM   51  C37 UNL     1      -3.779   6.370  -1.614  1.00  0.00     0.030 A 
HETATM   52  C38 UNL     1      -4.726   5.463  -1.205  1.00  0.00    -0.000 A 
HETATM   53  C39 UNL     1      -6.077   5.652  -1.430  1.00  0.00    -0.000 A 
HETATM   54  C40 UNL     1      -6.426   6.812  -2.094  1.00  0.00     0.002 A 
HETATM   55  C41 UNL     1      -5.488   7.725  -2.508  1.00  0.00     0.029 A 
HETATM   56  C42 UNL     1      -4.156   7.514  -2.272  1.00  0.00     0.138 A 
HETATM   57  F1  UNL     1      -3.215   8.403  -2.671  1.00  0.00    -0.204 F 
ENDBRANCH  50  51
ENDBRANCH  49  50
ENDBRANCH  46  47
ENDBRANCH   1  41
TORSDOF 13
