REMARK  10 active torsions:
REMARK  status: ('A' for Active; 'I' for Inactive)
REMARK    1  A    between atoms: O1_2  and  C2_3 
REMARK    2  A    between atoms: C7_8  and  C8_9 
REMARK    3  A    between atoms: C8_9  and  C9_11 
REMARK    4  A    between atoms: C10_12  and  C11_13 
REMARK    5  A    between atoms: C11_13  and  N1_14 
REMARK    6  A    between atoms: N1_14  and  C13_16 
REMARK    7  A    between atoms: C13_16  and  C14_17 
REMARK    8  A    between atoms: C14_17  and  C15_18 
REMARK       I    between atoms: N3_20  and  C16_21 
REMARK    9  A    between atoms: C16_21  and  C17_23 
REMARK       I    between atoms: C22_32  and  N6_34 
REMARK   10  A    between atoms: N6_34  and  C23_35 
ROOT
HETATM    1  C15 UNL     1       1.591   0.384   0.291  1.00  0.00     0.078 A 
HETATM    2  N2  UNL     1       0.425   1.117   0.158  1.00  0.00    -0.168 NA
HETATM    3  N3  UNL     1      -0.587   0.543   0.697  1.00  0.00    -0.199 N 
HETATM    4  C16 UNL     1      -2.015   0.749   0.586  1.00  0.00     0.284 C 
HETATM    5  O3  UNL     1      -2.356   1.129  -0.535  1.00  0.00    -0.265 OA
HETATM    6  C32 UNL     1      -0.135  -0.628   1.221  1.00  0.00     0.061 A 
HETATM    7  C33 UNL     1       1.226  -0.723   0.967  1.00  0.00     0.007 A 
HETATM    8  C34 UNL     1       1.891  -1.946   1.409  1.00  0.00     0.029 C 
HETATM    9  C35 UNL     1       1.147  -3.194   0.989  1.00  0.00     0.005 C 
HETATM   10  C36 UNL     1      -0.353  -3.006   1.019  1.00  0.00     0.007 C 
HETATM   11  C37 UNL     1      -0.774  -1.816   1.868  1.00  0.00     0.046 C 
ENDROOT
BRANCH   4  12
HETATM   12  C17 UNL     1      -2.854   0.490   1.726  1.00  0.00     0.111 A 
HETATM   13  C18 UNL     1      -2.333   0.303   3.011  1.00  0.00     0.194 A 
HETATM   14  O4  UNL     1      -0.990   0.639   3.248  1.00  0.00    -0.185 OA
HETATM   15  C19 UNL     1      -3.105  -0.175   4.051  1.00  0.00     0.302 A 
HETATM   16  O5  UNL     1      -2.582  -0.328   5.189  1.00  0.00    -0.263 OA
HETATM   17  N4  UNL     1      -4.383  -0.476   3.888  1.00  0.00    -0.213 N 
HETATM   18  C20 UNL     1      -5.200  -0.981   5.005  1.00  0.00     0.157 C 
HETATM   19  N5  UNL     1      -4.896  -0.305   2.699  1.00  0.00    -0.163 NA
HETATM   20  C21 UNL     1      -4.191   0.166   1.606  1.00  0.00     0.151 A 
HETATM   21  C22 UNL     1      -4.930   0.303   0.372  1.00  0.00     0.228 C 
HETATM   22  O6  UNL     1      -6.129  -0.238   0.337  1.00  0.00    -0.168 OA
HETATM   23  N6  UNL     1      -4.583   0.923  -0.809  1.00  0.00    -0.247 NA
BRANCH  23  24
HETATM   24  C23 UNL     1      -5.434   0.981  -1.995  1.00  0.00     0.106 C 
HETATM   25  C24 UNL     1      -6.764   1.562  -1.525  1.00  0.00     0.024 C 
HETATM   26  C25 UNL     1      -7.905   1.126  -2.407  1.00  0.00     0.002 C 
HETATM   27  C26 UNL     1      -8.655   0.011  -1.685  1.00  0.00     0.000 C 
HETATM   28  C27 UNL     1      -8.648  -1.262  -2.502  1.00  0.00     0.000 C 
HETATM   29  C28 UNL     1      -8.351  -0.983  -3.963  1.00  0.00     0.000 C 
HETATM   30  C29 UNL     1      -6.969  -1.544  -4.266  1.00  0.00     0.000 C 
HETATM   31  C30 UNL     1      -5.947  -0.481  -3.972  1.00  0.00     0.002 C 
HETATM   32  C31 UNL     1      -5.639  -0.440  -2.506  1.00  0.00     0.024 C 
ENDBRANCH  23  24
ENDBRANCH   4  12
BRANCH   1  33
HETATM   33  C14 UNL     1       2.879   0.918  -0.216  1.00  0.00     0.083 C 
BRANCH  33  34
HETATM   34  C13 UNL     1       3.693   1.711   0.680  1.00  0.00     0.257 C 
BRANCH  34  35
HETATM   35  N1  UNL     1       4.238   1.233   1.883  1.00  0.00     0.144 N 
HETATM   36  C12 UNL     1       3.231   0.661   2.725  1.00  0.00     0.286 C 
BRANCH  35  37
HETATM   37  C11 UNL     1       5.270   0.272   1.630  1.00  0.00     0.277 C 
BRANCH  37  38
HETATM   38  C10 UNL     1       4.876  -0.831   0.748  1.00  0.00     0.012 C 
HETATM   39  C9  UNL     1       5.567  -0.968  -0.398  1.00  0.00     0.040 C 
BRANCH  39  40
HETATM   40  C8  UNL     1       6.640  -0.021  -0.668  1.00  0.00     0.197 C 
HETATM   41  O2  UNL     1       6.887   0.871   0.163  1.00  0.00    -0.286 OA
BRANCH  40  42
HETATM   42  C7  UNL     1       7.401  -0.121  -1.890  1.00  0.00     0.061 A 
HETATM   43  C2  UNL     1       8.429   0.777  -2.127  1.00  0.00     0.097 A 
HETATM   44  C3  UNL     1       9.154   0.685  -3.283  1.00  0.00     0.024 A 
HETATM   45  C4  UNL     1       8.882  -0.293  -4.230  1.00  0.00     0.002 A 
HETATM   46  C5  UNL     1       7.846  -1.181  -3.968  1.00  0.00     0.000 A 
HETATM   47  C6  UNL     1       7.108  -1.094  -2.801  1.00  0.00     0.005 A 
BRANCH  43  48
HETATM   48  O1  UNL     1       8.658   1.722  -1.158  1.00  0.00    -0.328 OA
HETATM   49  C1  UNL     1       9.668   2.690  -1.264  1.00  0.00     0.181 C 
ENDBRANCH  43  48
ENDBRANCH  40  42
ENDBRANCH  39  40
ENDBRANCH  37  38
ENDBRANCH  35  37
ENDBRANCH  34  35
ENDBRANCH  33  34
ENDBRANCH   1  33
TORSDOF 10
