REMARK  9 active torsions:
REMARK  status: ('A' for Active; 'I' for Inactive)
REMARK    1  A    between atoms: O1_2  and  C2_3 
REMARK    2  A    between atoms: C7_8  and  N1_9 
REMARK    3  A    between atoms: C8_10  and  N2_11 
REMARK       I    between atoms: N3_14  and  C11_15 
REMARK    4  A    between atoms: C11_15  and  C12_17 
REMARK    5  A    between atoms: N4_21  and  C15_22 
REMARK    6  A    between atoms: C20_27  and  C21_28 
REMARK       I    between atoms: C21_28  and  N5_30 
REMARK    7  A    between atoms: N5_30  and  C22_31 
REMARK    8  A    between atoms: C22_31  and  C23_32 
REMARK    9  A    between atoms: C23_32  and  N6_33 
ROOT
HETATM    1  C12 UNL     1       0.477  -1.479   0.883  1.00  0.00     0.168 C 
HETATM    2  C13 UNL     1       0.258  -0.745  -0.421  1.00  0.00     0.107 C 
HETATM    3  C14 UNL     1      -1.115  -1.222  -0.800  1.00  0.00     0.244 C 
HETATM    4  O3  UNL     1      -1.619  -1.246  -1.961  1.00  0.00    -0.272 OA
HETATM    5  N4  UNL     1      -1.822  -1.667   0.348  1.00  0.00    -0.248 N 
HETATM    6  C30 UNL     1      -0.900  -1.525   1.438  1.00  0.00     0.252 C 
HETATM    7  O5  UNL     1      -1.200  -1.452   2.655  1.00  0.00    -0.271 OA
ENDROOT
BRANCH   5   8
HETATM    8  C15 UNL     1      -3.146  -2.163   0.498  1.00  0.00     0.074 A 
HETATM    9  C16 UNL     1      -3.401  -3.452   0.936  1.00  0.00     0.018 A 
HETATM   10  C17 UNL     1      -4.711  -3.859   1.059  1.00  0.00     0.002 A 
HETATM   11  C18 UNL     1      -5.780  -3.025   0.758  1.00  0.00     0.000 A 
HETATM   12  C19 UNL     1      -5.485  -1.750   0.325  1.00  0.00     0.006 A 
HETATM   13  C20 UNL     1      -4.202  -1.314   0.192  1.00  0.00     0.074 A 
BRANCH  13  14
HETATM   14  C21 UNL     1      -3.896   0.039  -0.276  1.00  0.00     0.276 C 
HETATM   15  O4  UNL     1      -2.893   0.684   0.111  1.00  0.00    -0.266 OA
HETATM   16  N5  UNL     1      -4.765   0.644  -1.202  1.00  0.00    -0.232 NA
BRANCH  16  17
HETATM   17  C22 UNL     1      -4.600   1.972  -1.765  1.00  0.00     0.164 C 
BRANCH  17  18
HETATM   18  C23 UNL     1      -5.748   2.283  -2.729  1.00  0.00     0.277 C 
BRANCH  18  19
HETATM   19  N6  UNL     1      -7.017   2.247  -2.037  1.00  0.00     0.143 N 
HETATM   20  C24 UNL     1      -7.292   0.908  -1.632  1.00  0.00     0.283 C 
HETATM   21  C25 UNL     1      -7.841   0.731  -0.261  1.00  0.00     0.252 C 
HETATM   22  N7  UNL     1      -7.382   1.653   0.726  1.00  0.00     0.001 N 
HETATM   23  C26 UNL     1      -8.542   2.324   1.318  1.00  0.00     0.250 C 
HETATM   24  C27 UNL     1      -6.698   1.011   1.855  1.00  0.00     0.250 C 
HETATM   25  C28 UNL     1      -6.473   2.662   0.232  1.00  0.00     0.252 C 
HETATM   26  C29 UNL     1      -7.063   3.242  -1.014  1.00  0.00     0.283 C 
ENDBRANCH  18  19
ENDBRANCH  17  18
ENDBRANCH  16  17
ENDBRANCH  13  14
ENDBRANCH   5   8
BRANCH   1  27
HETATM   27  C11 UNL     1       1.440  -0.852   1.782  1.00  0.00     0.243 C 
HETATM   28  N3  UNL     1       2.776  -0.672   1.380  1.00  0.00    -0.316 N 
HETATM   29  C10 UNL     1       3.188  -1.111   0.076  1.00  0.00     0.128 C 
HETATM   30  C31 UNL     1       3.740  -0.057   2.255  1.00  0.00     0.128 C 
HETATM   31  C9  UNL     1       3.606   0.130  -0.701  1.00  0.00     0.127 C 
HETATM   32  N2  UNL     1       4.589   0.798   0.122  1.00  0.00    -0.327 N 
HETATM   33  C32 UNL     1       4.367   1.107   1.519  1.00  0.00     0.127 C 
HETATM   34  O2  UNL     1       1.013  -0.484   2.925  1.00  0.00    -0.272 OA
BRANCH  32  35
HETATM   35  C8  UNL     1       5.830   1.166  -0.455  1.00  0.00     0.174 C 
HETATM   36  N1  UNL     1       6.887   0.604   0.061  1.00  0.00    -0.224 NA
BRANCH  36  37
HETATM   37  C7  UNL     1       8.179   0.885  -0.423  1.00  0.00     0.105 A 
HETATM   38  C2  UNL     1       9.213   0.034  -0.087  1.00  0.00     0.112 A 
HETATM   39  C3  UNL     1      10.480   0.302  -0.559  1.00  0.00     0.026 A 
HETATM   40  C4  UNL     1      10.662   1.405  -1.344  1.00  0.00     0.002 A 
HETATM   41  C5  UNL     1       9.619   2.266  -1.684  1.00  0.00     0.002 A 
HETATM   42  C6  UNL     1       8.351   2.003  -1.215  1.00  0.00     0.021 A 
BRANCH  38  43
HETATM   43  O1  UNL     1       8.944  -1.061   0.711  1.00  0.00    -0.327 OA
HETATM   44  C1  UNL     1       9.973  -1.963   1.081  1.00  0.00     0.181 C 
ENDBRANCH  38  43
ENDBRANCH  36  37
ENDBRANCH  32  35
ENDBRANCH   1  27
TORSDOF 9
