REMARK  4 active torsions:
REMARK  status: ('A' for Active; 'I' for Inactive)
REMARK    1  A    between atoms: C2_4  and  C3_5 
REMARK    2  A    between atoms: C9_11  and  C10_12 
REMARK    3  A    between atoms: C10_12  and  C11_13 
REMARK       I    between atoms: C11_13  and  N3_15 
REMARK    4  A    between atoms: N3_15  and  C12_16 
ROOT
HETATM    1  C1  UNL     1      -4.419   0.560   0.387  1.00  0.00     0.154 C 
HETATM    2  N1  UNL     1      -3.176  -0.124   0.023  1.00  0.00    -0.249 N 
HETATM    3  N2  UNL     1      -2.222   0.612  -0.677  1.00  0.00    -0.173 NA
HETATM    4  C2  UNL     1      -1.132   0.284  -1.280  1.00  0.00     0.086 C 
HETATM    5  C9  UNL     1      -0.501  -1.017  -1.447  1.00  0.00     0.113 C 
HETATM    6  C18 UNL     1      -0.897  -2.099  -0.563  1.00  0.00     0.180 C 
HETATM    7  O2  UNL     1      -0.035  -3.014  -0.391  1.00  0.00    -0.291 OA
HETATM    8  C19 UNL     1      -2.120  -2.364   0.195  1.00  0.00     0.052 A 
HETATM    9  C20 UNL     1      -2.229  -3.650   0.686  1.00  0.00     0.004 A 
HETATM   10  C21 UNL     1      -3.315  -4.062   1.417  1.00  0.00     0.000 A 
HETATM   11  C22 UNL     1      -4.329  -3.186   1.678  1.00  0.00     0.002 A 
HETATM   12  C23 UNL     1      -4.233  -1.892   1.192  1.00  0.00     0.019 A 
HETATM   13  C24 UNL     1      -3.151  -1.476   0.461  1.00  0.00     0.081 A 
ENDROOT
BRANCH   5  14
HETATM   14  C10 UNL     1       1.007  -0.831  -1.502  1.00  0.00     0.104 C 
BRANCH  14  15
HETATM   15  C11 UNL     1       1.509  -0.207  -0.241  1.00  0.00     0.257 C 
HETATM   16  O1  UNL     1       0.760   0.110   0.717  1.00  0.00    -0.270 OA
HETATM   17  N3  UNL     1       2.899   0.047  -0.103  1.00  0.00    -0.212 NA
BRANCH  17  18
HETATM   18  C12 UNL     1       3.448   0.639   1.068  1.00  0.00     0.084 A 
HETATM   19  C13 UNL     1       2.683   1.007   2.149  1.00  0.00     0.019 A 
HETATM   20  C14 UNL     1       3.253   1.574   3.258  1.00  0.00     0.002 A 
HETATM   21  C15 UNL     1       4.617   1.761   3.250  1.00  0.00     0.000 A 
HETATM   22  C16 UNL     1       5.420   1.407   2.192  1.00  0.00     0.002 A 
HETATM   23  C17 UNL     1       4.813   0.842   1.097  1.00  0.00     0.019 A 
ENDBRANCH  17  18
ENDBRANCH  14  15
ENDBRANCH   5  14
BRANCH   4  24
HETATM   24  C3  UNL     1      -0.425   1.431  -1.900  1.00  0.00     0.016 A 
HETATM   25  C4  UNL     1      -0.940   2.695  -1.783  1.00  0.00     0.001 A 
HETATM   26  C5  UNL     1      -0.286   3.790  -2.369  1.00  0.00     0.000 A 
HETATM   27  C6  UNL     1       0.884   3.595  -3.068  1.00  0.00     0.000 A 
HETATM   28  C7  UNL     1       1.389   2.320  -3.176  1.00  0.00     0.000 A 
HETATM   29  C8  UNL     1       0.729   1.247  -2.590  1.00  0.00     0.001 A 
ENDBRANCH   4  24
TORSDOF 4
