REMARK  5 active torsions:
REMARK  status: ('A' for Active; 'I' for Inactive)
REMARK    1  A    between atoms: S1_2  and  N1_5 
REMARK    2  A    between atoms: N1_5  and  C2_6 
REMARK    3  A    between atoms: C4_9  and  C5_10 
REMARK       I    between atoms: C5_10  and  N3_12 
REMARK    4  A    between atoms: N3_12  and  C6_13 
REMARK    5  A    between atoms: C10_17  and  N4_18 
ROOT
HETATM    1  C5  UNL     1      -0.190  -0.675  -0.566  1.00  0.00     0.258 C 
HETATM    2  O3  UNL     1      -0.509   0.303  -1.258  1.00  0.00    -0.270 OA
HETATM    3  N3  UNL     1      -1.161  -1.349   0.197  1.00  0.00    -0.212 NA
ENDROOT
BRANCH   1   4
HETATM    4  C4  UNL     1       1.204  -1.142  -0.535  1.00  0.00     0.113 C 
HETATM    5  C3  UNL     1       1.690  -1.057   0.893  1.00  0.00     0.137 C 
HETATM    6  N2  UNL     1       3.095  -0.782   0.746  1.00  0.00    -0.255 NA
HETATM    7  C2  UNL     1       3.382  -0.318  -0.410  1.00  0.00     0.147 C 
HETATM    8  C12 UNL     1       2.148  -0.208  -1.264  1.00  0.00     0.078 C 
BRANCH   7   9
HETATM    9  N1  UNL     1       4.716   0.029  -0.785  1.00  0.00    -0.147 NA
BRANCH   9  10
HETATM   10  S1  UNL     1       5.776   0.795   0.345  1.00  0.00     0.267 S 
HETATM   11  C1  UNL     1       6.085  -0.202   1.759  1.00  0.00     0.165 C 
HETATM   12  O1  UNL     1       5.265   2.132   0.771  1.00  0.00    -0.203 OA
HETATM   13  O2  UNL     1       7.079   1.046  -0.398  1.00  0.00    -0.203 OA
ENDBRANCH   9  10
ENDBRANCH   7   9
ENDBRANCH   1   4
BRANCH   3  14
HETATM   14  C6  UNL     1      -2.522  -0.956   0.216  1.00  0.00     0.086 A 
HETATM   15  C7  UNL     1      -3.371  -1.712   1.014  1.00  0.00     0.019 A 
HETATM   16  C8  UNL     1      -4.713  -1.435   1.120  1.00  0.00     0.003 A 
HETATM   17  C9  UNL     1      -5.222  -0.370   0.406  1.00  0.00     0.024 A 
HETATM   18  C10 UNL     1      -4.371   0.375  -0.385  1.00  0.00     0.128 A 
HETATM   19  C11 UNL     1      -3.025   0.100  -0.492  1.00  0.00     0.043 A 
BRANCH  18  20
HETATM   20  N4  UNL     1      -4.907   1.468  -1.114  1.00  0.00    -0.114 N 
HETATM   21  O4  UNL     1      -6.249   1.789  -1.044  1.00  0.00    -0.532 OA
HETATM   22  O5  UNL     1      -4.199   2.170  -1.835  1.00  0.00    -0.532 OA
ENDBRANCH  18  20
ENDBRANCH   3  14
TORSDOF 5
