REMARK  16 active torsions:
REMARK  status: ('A' for Active; 'I' for Inactive)
REMARK    1  A    between atoms: O1_2  and  C2_3 
REMARK    2  A    between atoms: C5_6  and  N1_7 
REMARK    3  A    between atoms: C13_16  and  C14_17 
REMARK    4  A    between atoms: C14_17  and  C15_18 
REMARK    5  A    between atoms: C15_18  and  C16_19 
REMARK    6  A    between atoms: C16_19  and  C17_20 
REMARK    7  A    between atoms: C17_20  and  C18_21 
REMARK    8  A    between atoms: C18_21  and  C19_22 
REMARK    9  A    between atoms: C26_30  and  C27_31 
REMARK   10  A    between atoms: C28_33  and  C29_34 
REMARK   11  A    between atoms: C29_34  and  C30_36 
REMARK   12  A    between atoms: C30_36  and  C31_37 
REMARK   13  A    between atoms: C31_37  and  C32_38 
REMARK   14  A    between atoms: C32_38  and  N2_39 
REMARK       I    between atoms: N2_39  and  C33_40 
REMARK   15  A    between atoms: C36_45  and  C37_46 
REMARK   16  A    between atoms: C37_46  and  C38_48 
ROOT
HETATM    1  N1  UNL     1      -0.984  -1.972  -0.628  1.00  0.00    -0.273 N 
HETATM    2  C6  UNL     1      -2.326  -2.496  -0.515  1.00  0.00     0.264 C 
HETATM    3  O2  UNL     1      -2.774  -3.228  -1.421  1.00  0.00    -0.267 OA
HETATM    4  C7  UNL     1      -3.270  -2.257   0.597  1.00  0.00     0.053 A 
HETATM    5  C8  UNL     1      -4.095  -3.335   0.821  1.00  0.00     0.004 A 
HETATM    6  C9  UNL     1      -5.025  -3.270   1.845  1.00  0.00     0.000 A 
HETATM    7  C10 UNL     1      -5.129  -2.141   2.638  1.00  0.00    -0.000 A 
HETATM    8  C11 UNL     1      -4.315  -1.051   2.433  1.00  0.00    -0.004 A 
HETATM    9  C12 UNL     1      -3.383  -1.143   1.390  1.00  0.00    -0.011 A 
HETATM   10  C13 UNL     1      -2.569   0.109   1.274  1.00  0.00     0.086 C 
HETATM   11  C25 UNL     1      -1.141  -0.345   1.179  1.00  0.00     0.191 C 
HETATM   12  O3  UNL     1      -0.524  -0.155   2.214  1.00  0.00    -0.290 OA
HETATM   13  C26 UNL     1      -0.360  -0.956   0.113  1.00  0.00     0.106 C 
ENDROOT
BRANCH  13  14
HETATM   14  C27 UNL     1       0.710  -0.153  -0.506  1.00  0.00     0.159 C 
HETATM   15  O4  UNL     1       1.159   0.815   0.436  1.00  0.00    -0.343 OA
HETATM   16  C28 UNL     1       2.537   0.813   0.509  1.00  0.00     0.202 C 
HETATM   17  C35 UNL     1       3.195   1.827  -0.389  1.00  0.00     0.180 C 
HETATM   18  O7  UNL     1       2.543   1.982  -1.591  1.00  0.00    -0.344 OA
HETATM   19  C36 UNL     1       2.505   0.816  -2.358  1.00  0.00     0.202 C 
HETATM   20  C41 UNL     1       2.986  -0.355  -1.521  1.00  0.00     0.189 C 
HETATM   21  O9  UNL     1       3.873  -1.164  -2.175  1.00  0.00    -0.220 OA
HETATM   22  C42 UNL     1       1.865  -1.077  -0.857  1.00  0.00     0.067 C 
HETATM   23  C43 UNL     1       2.268  -1.819   0.387  1.00  0.00     0.006 C 
BRANCH  16  24
HETATM   24  C29 UNL     1       3.056   0.850   1.892  1.00  0.00     0.180 C 
HETATM   25  O5  UNL     1       2.315   0.871   2.879  1.00  0.00    -0.293 OA
BRANCH  24  26
HETATM   26  C30 UNL     1       4.514   0.861   2.114  1.00  0.00     0.069 C 
BRANCH  26  27
HETATM   27  C31 UNL     1       4.836   0.852   3.594  1.00  0.00     0.034 C 
BRANCH  27  28
HETATM   28  C32 UNL     1       6.317   0.866   3.804  1.00  0.00     0.129 C 
BRANCH  28  29
HETATM   29  N2  UNL     1       6.968   2.021   3.258  1.00  0.00    -0.238 NA
HETATM   30  C33 UNL     1       6.596   3.301   3.734  1.00  0.00     0.252 C 
HETATM   31  C34 UNL     1       7.236   4.539   3.205  1.00  0.00     0.100 C 
HETATM   32  O6  UNL     1       5.692   3.392   4.635  1.00  0.00    -0.271 OA
ENDBRANCH  28  29
ENDBRANCH  27  28
ENDBRANCH  26  27
ENDBRANCH  24  26
ENDBRANCH  16  24
BRANCH  19  33
HETATM   33  C37 UNL     1       3.506   0.967  -3.453  1.00  0.00     0.180 C 
HETATM   34  O8  UNL     1       3.582   0.020  -4.234  1.00  0.00    -0.293 OA
BRANCH  33  35
HETATM   35  C38 UNL     1       4.372   2.131  -3.651  1.00  0.00     0.060 C 
HETATM   36  C39 UNL     1       5.287   2.416  -2.489  1.00  0.00     0.008 C 
HETATM   37  C40 UNL     1       3.655   3.355  -4.139  1.00  0.00     0.008 C 
ENDBRANCH  33  35
ENDBRANCH  19  33
ENDBRANCH  13  14
BRANCH   1  38
HETATM   38  C5  UNL     1      -0.226  -2.606  -1.636  1.00  0.00     0.067 A 
HETATM   39  C4  UNL     1       0.097  -2.065  -2.853  1.00  0.00     0.020 A 
HETATM   40  C3  UNL     1       0.837  -2.764  -3.785  1.00  0.00     0.026 A 
HETATM   41  C2  UNL     1       1.293  -4.042  -3.548  1.00  0.00     0.094 A 
HETATM   42  C45 UNL     1       0.979  -4.604  -2.328  1.00  0.00     0.026 A 
HETATM   43  C44 UNL     1       0.242  -3.907  -1.400  1.00  0.00     0.020 A 
BRANCH  41  44
HETATM   44  O1  UNL     1       2.046  -4.751  -4.500  1.00  0.00    -0.328 OA
HETATM   45  C1  UNL     1       2.503  -6.051  -4.248  1.00  0.00     0.181 C 
ENDBRANCH  41  44
ENDBRANCH   1  38
BRANCH  10  46
HETATM   46  C14 UNL     1      -2.858   0.869  -0.005  1.00  0.00     0.012 C 
BRANCH  46  47
HETATM   47  C15 UNL     1      -4.322   1.227  -0.022  1.00  0.00     0.001 C 
BRANCH  47  48
HETATM   48  C16 UNL     1      -5.203   0.036  -0.013  1.00  0.00     0.000 C 
BRANCH  48  49
HETATM   49  C17 UNL     1      -6.650   0.227  -0.021  1.00  0.00     0.005 C 
BRANCH  49  50
HETATM   50  C18 UNL     1      -7.186   0.946   1.151  1.00  0.00     0.026 C 
BRANCH  50  51
HETATM   51  C19 UNL     1      -6.629   2.301   1.286  1.00  0.00    -0.022 A 
HETATM   52  C20 UNL     1      -7.285   3.306   0.565  1.00  0.00    -0.004 A 
HETATM   53  C21 UNL     1      -6.864   4.597   0.641  1.00  0.00    -0.000 A 
HETATM   54  C22 UNL     1      -5.784   4.886   1.440  1.00  0.00    -0.000 A 
HETATM   55  C23 UNL     1      -5.117   3.897   2.168  1.00  0.00    -0.000 A 
HETATM   56  C24 UNL     1      -5.548   2.612   2.083  1.00  0.00    -0.004 A 
ENDBRANCH  50  51
ENDBRANCH  49  50
ENDBRANCH  48  49
ENDBRANCH  47  48
ENDBRANCH  46  47
ENDBRANCH  10  46
TORSDOF 16
