REMARK  18 active torsions:
REMARK  status: ('A' for Active; 'I' for Inactive)
REMARK    1  A    between atoms: O1_2  and  C2_3 
REMARK    2  A    between atoms: C7_8  and  C8_9 
REMARK    3  A    between atoms: C8_9  and  C9_10 
REMARK    4  A    between atoms: C9_10  and  C21_27 
REMARK       I    between atoms: N1_11  and  C10_12 
REMARK    5  A    between atoms: C10_12  and  C11_14 
REMARK    6  A    between atoms: C11_14  and  N2_15 
REMARK       I    between atoms: N2_15  and  C12_16 
REMARK    7  A    between atoms: C12_16  and  C13_18 
REMARK    8  A    between atoms: C21_27  and  C22_29 
REMARK    9  A    between atoms: C22_29  and  N3_30 
REMARK       I    between atoms: N3_30  and  C23_31 
REMARK       I    between atoms: C23_31  and  N4_33 
REMARK   10  A    between atoms: N4_33  and  C24_34 
REMARK   11  A    between atoms: C29_39  and  N5_40 
REMARK   12  A    between atoms: N5_40  and  C30_43 
REMARK   13  A    between atoms: C30_43  and  C31_44 
REMARK   14  A    between atoms: C30_43  and  C41_57 
REMARK       I    between atoms: C31_44  and  N8_46 
REMARK   15  A    between atoms: N8_46  and  C32_47 
REMARK   16  A    between atoms: C32_47  and  C33_48 
REMARK   17  A    between atoms: C32_47  and  C34_50 
REMARK   18  A    between atoms: C34_50  and  C35_51 
ROOT
HETATM    1  N5  UNL     1      -4.653   0.208  -1.245  1.00  0.00    -0.061 NA
HETATM    2  N6  UNL     1      -4.251  -0.735  -2.123  1.00  0.00    -0.205 NA
HETATM    3  N7  UNL     1      -3.934  -1.515  -2.861  1.00  0.00     0.061 N 
ENDROOT
BRANCH   1   4
HETATM    4  C29 UNL     1      -4.175  -0.118   0.053  1.00  0.00     0.093 A 
HETATM    5  C24 UNL     1      -2.803  -0.042   0.258  1.00  0.00     0.100 A 
HETATM    6  C25 UNL     1      -2.295  -0.345   1.494  1.00  0.00     0.020 A 
HETATM    7  C26 UNL     1      -3.114  -0.727   2.550  1.00  0.00     0.002 A 
HETATM    8  C27 UNL     1      -4.483  -0.804   2.351  1.00  0.00     0.001 A 
HETATM    9  C28 UNL     1      -4.989  -0.499   1.106  1.00  0.00     0.016 A 
BRANCH   5  10
HETATM   10  N4  UNL     1      -1.979   0.346  -0.837  1.00  0.00    -0.190 NA
HETATM   11  C23 UNL     1      -0.586   0.551  -0.712  1.00  0.00     0.365 C 
HETATM   12  N3  UNL     1       0.203   0.946  -1.840  1.00  0.00    -0.209 NA
HETATM   13  O5  UNL     1      -0.104   0.368   0.445  1.00  0.00    -0.243 OA
BRANCH  12  14
HETATM   14  C22 UNL     1       1.588   1.164  -1.650  1.00  0.00     0.200 C 
BRANCH  14  15
HETATM   15  C21 UNL     1       2.248  -0.117  -1.158  1.00  0.00     0.211 C 
HETATM   16  O4  UNL     1       1.584  -1.116  -1.068  1.00  0.00    -0.288 OA
BRANCH  15  17
HETATM   17  C9  UNL     1       3.656  -0.013  -0.830  1.00  0.00     0.103 C 
HETATM   18  N1  UNL     1       4.371  -1.063  -0.334  1.00  0.00    -0.211 NA
HETATM   19  C10 UNL     1       3.948  -2.199   0.331  1.00  0.00     0.280 C 
HETATM   20  O2  UNL     1       2.726  -2.434   0.604  1.00  0.00    -0.268 OA
BRANCH  17  21
HETATM   21  C8  UNL     1       4.345   1.124  -1.473  1.00  0.00     0.077 C 
BRANCH  21  22
HETATM   22  C7  UNL     1       5.274   1.888  -0.634  1.00  0.00     0.006 A 
HETATM   23  C2  UNL     1       6.187   2.763  -1.242  1.00  0.00     0.090 A 
HETATM   24  C3  UNL     1       7.048   3.509  -0.479  1.00  0.00     0.024 A 
HETATM   25  C4  UNL     1       7.064   3.441   0.890  1.00  0.00     0.002 A 
HETATM   26  C5  UNL     1       6.170   2.584   1.508  1.00  0.00    -0.000 A 
HETATM   27  C6  UNL     1       5.307   1.837   0.737  1.00  0.00    -0.002 A 
BRANCH  23  28
HETATM   28  O1  UNL     1       6.169   2.827  -2.615  1.00  0.00    -0.328 OA
HETATM   29  C1  UNL     1       7.084   3.706  -3.273  1.00  0.00     0.181 C 
ENDBRANCH  23  28
ENDBRANCH  21  22
ENDBRANCH  17  21
BRANCH  19  30
HETATM   30  C11 UNL     1       4.915  -3.242   0.776  1.00  0.00     0.218 C 
BRANCH  30  31
HETATM   31  N2  UNL     1       6.251  -2.812   0.457  1.00  0.00    -0.224 NA
HETATM   32  C12 UNL     1       6.813  -1.631   1.034  1.00  0.00     0.281 C 
HETATM   33  O3  UNL     1       6.094  -1.007   1.822  1.00  0.00    -0.265 OA
BRANCH  32  34
HETATM   34  C13 UNL     1       8.170  -1.225   0.679  1.00  0.00     0.087 A 
HETATM   35  C14 UNL     1       9.033  -1.883  -0.141  1.00  0.00     0.012 A 
HETATM   36  C15 UNL     1      10.251  -1.354  -0.330  1.00  0.00     0.007 A 
HETATM   37  C16 UNL     1      11.266  -1.895  -1.145  1.00  0.00     0.001 A 
HETATM   38  C20 UNL     1      10.538  -0.181   0.320  1.00  0.00     0.030 A 
HETATM   39  C17 UNL     1      12.457  -1.255  -1.251  1.00  0.00     0.000 A 
HETATM   40  C18 UNL     1      12.782  -0.071  -0.610  1.00  0.00     0.001 A 
HETATM   41  C19 UNL     1      11.785   0.449   0.181  1.00  0.00     0.006 A 
HETATM   42  S1  UNL     1       9.092   0.126   1.165  1.00  0.00    -0.082 SA
ENDBRANCH  32  34
ENDBRANCH  30  31
ENDBRANCH  19  30
ENDBRANCH  15  17
ENDBRANCH  14  15
ENDBRANCH  12  14
ENDBRANCH   5  10
ENDBRANCH   1   4
BRANCH   1  43
HETATM   43  C30 UNL     1      -6.070   0.258  -1.249  1.00  0.00     0.132 C 
BRANCH  43  44
HETATM   44  C31 UNL     1      -6.565   1.259  -0.301  1.00  0.00     0.288 C 
HETATM   45  O6  UNL     1      -5.772   1.985   0.394  1.00  0.00    -0.264 OA
HETATM   46  N8  UNL     1      -7.950   1.527  -0.052  1.00  0.00    -0.232 NA
BRANCH  46  47
HETATM   47  C32 UNL     1      -8.337   2.542   0.917  1.00  0.00     0.144 C 
BRANCH  47  48
HETATM   48  C33 UNL     1      -8.921   3.752   0.269  1.00  0.00     0.207 C 
HETATM   49  O7  UNL     1     -10.067   3.494  -0.476  1.00  0.00    -0.218 OA
ENDBRANCH  47  48
BRANCH  47  50
HETATM   50  C34 UNL     1      -9.377   1.850   1.814  1.00  0.00     0.053 C 
BRANCH  50  51
HETATM   51  C35 UNL     1      -8.753   0.658   2.460  1.00  0.00    -0.020 A 
HETATM   52  C36 UNL     1      -8.849  -0.546   1.811  1.00  0.00    -0.004 A 
HETATM   53  C37 UNL     1      -8.296  -1.689   2.332  1.00  0.00    -0.000 A 
HETATM   54  C38 UNL     1      -7.634  -1.615   3.530  1.00  0.00    -0.000 A 
HETATM   55  C39 UNL     1      -7.507  -0.434   4.225  1.00  0.00    -0.000 A 
HETATM   56  C40 UNL     1      -8.082   0.697   3.660  1.00  0.00    -0.004 A 
ENDBRANCH  50  51
ENDBRANCH  47  50
ENDBRANCH  46  47
ENDBRANCH  43  44
BRANCH  43  57
HETATM   57  C41 UNL     1      -6.748  -0.993  -1.346  1.00  0.00     0.018 A 
HETATM   58  C42 UNL     1      -6.415  -2.153  -0.683  1.00  0.00     0.001 A 
HETATM   59  C43 UNL     1      -7.091  -3.331  -0.800  1.00  0.00     0.000 A 
HETATM   60  C44 UNL     1      -8.179  -3.413  -1.617  1.00  0.00     0.000 A 
HETATM   61  C45 UNL     1      -8.568  -2.292  -2.310  1.00  0.00     0.000 A 
HETATM   62  C46 UNL     1      -7.873  -1.108  -2.182  1.00  0.00     0.001 A 
ENDBRANCH  43  57
ENDBRANCH   1  43
TORSDOF 18
