REMARK  7 active torsions:
REMARK  status: ('A' for Active; 'I' for Inactive)
REMARK    1  A    between atoms: S1_2  and  C2_3 
REMARK    2  A    between atoms: C7_8  and  C8_9 
REMARK    3  A    between atoms: C8_9  and  N1_10 
REMARK       I    between atoms: N1_10  and  C9_11 
REMARK    4  A    between atoms: C9_11  and  C10_13 
REMARK    5  A    between atoms: C13_16  and  N2_17 
REMARK    6  A    between atoms: C21_25  and  S2_26 
REMARK    7  A    between atoms: S2_26  and  C22_29 
ROOT
HETATM    1  N2  UNL     1      -1.330  -0.244  -0.308  1.00  0.00    -0.334 N 
HETATM    2  C14 UNL     1      -2.570  -0.842  -0.012  1.00  0.00     0.052 C 
HETATM    3  C15 UNL     1      -3.536  -1.175  -1.013  1.00  0.00     0.013 A 
HETATM    4  C16 UNL     1      -3.910  -0.358  -2.029  1.00  0.00     0.001 A 
HETATM    5  C17 UNL     1      -4.837  -0.749  -2.956  1.00  0.00     0.000 A 
HETATM    6  C18 UNL     1      -5.437  -1.990  -2.893  1.00  0.00     0.000 A 
HETATM    7  C19 UNL     1      -5.093  -2.835  -1.893  1.00  0.00     0.000 A 
HETATM    8  C20 UNL     1      -4.137  -2.412  -0.955  1.00  0.00     0.001 A 
HETATM    9  C21 UNL     1      -2.941  -0.161   1.279  1.00  0.00     0.152 C 
HETATM   10  C28 UNL     1      -2.330   1.274   1.170  1.00  0.00     0.043 C 
HETATM   11  C29 UNL     1      -1.664   1.231  -0.207  1.00  0.00     0.070 C 
HETATM   12  C30 UNL     1      -2.427   1.774  -1.311  1.00  0.00     0.023 C 
HETATM   13  C31 UNL     1      -0.345   2.012  -0.051  1.00  0.00     0.023 C 
ENDROOT
BRANCH   1  14
HETATM   14  C13 UNL     1       0.018  -0.582  -0.354  1.00  0.00     0.059 A 
HETATM   15  C12 UNL     1       0.563  -1.252   0.753  1.00  0.00     0.017 A 
HETATM   16  C11 UNL     1       1.923  -1.239   0.953  1.00  0.00     0.006 A 
HETATM   17  C10 UNL     1       2.763  -0.587   0.094  1.00  0.00     0.054 A 
HETATM   18  C33 UNL     1       2.212   0.065  -1.015  1.00  0.00    -0.016 A 
HETATM   19  C32 UNL     1       0.862   0.066  -1.240  1.00  0.00     0.013 A 
HETATM   20  C34 UNL     1       3.187   0.759  -1.921  1.00  0.00     0.031 C 
BRANCH  17  21
HETATM   21  C9  UNL     1       4.188  -0.405   0.324  1.00  0.00     0.279 C 
HETATM   22  N1  UNL     1       4.814   0.719  -0.260  1.00  0.00    -0.206 NA
HETATM   23  O1  UNL     1       4.879  -1.246   1.028  1.00  0.00    -0.265 OA
BRANCH  22  24
HETATM   24  C8  UNL     1       6.193   0.943  -0.262  1.00  0.00     0.103 C 
BRANCH  24  25
HETATM   25  C7  UNL     1       6.842   0.267   0.902  1.00  0.00     0.025 A 
HETATM   26  C2  UNL     1       7.766  -0.683   0.348  1.00  0.00     0.027 A 
HETATM   27  C3  UNL     1       8.616  -1.312   1.175  1.00  0.00     0.006 A 
HETATM   28  C4  UNL     1       8.592  -1.034   2.561  1.00  0.00     0.001 A 
HETATM   29  C5  UNL     1       7.725  -0.146   3.068  1.00  0.00     0.000 A 
HETATM   30  C6  UNL     1       6.794   0.534   2.233  1.00  0.00     0.002 A 
BRANCH  26  31
HETATM   31  S1  UNL     1       7.499  -1.023  -1.354  1.00  0.00    -0.113 SA
HETATM   32  C1  UNL     1       8.214   0.131  -2.492  1.00  0.00     0.074 C 
ENDBRANCH  26  31
ENDBRANCH  24  25
ENDBRANCH  22  24
ENDBRANCH  17  21
ENDBRANCH   1  14
BRANCH   9  33
HETATM   33  S2  UNL     1      -4.534  -0.135   1.870  1.00  0.00     0.194 S 
HETATM   34  O2  UNL     1      -4.984  -1.507   2.316  1.00  0.00    -0.221 OA
HETATM   35  O3  UNL     1      -4.505   0.728   3.126  1.00  0.00    -0.221 OA
BRANCH  33  36
HETATM   36  C22 UNL     1      -5.665   0.631   0.755  1.00  0.00     0.084 A 
HETATM   37  C23 UNL     1      -5.567   1.971   0.528  1.00  0.00     0.011 A 
HETATM   38  C24 UNL     1      -6.461   2.509  -0.372  1.00  0.00     0.001 A 
HETATM   39  C25 UNL     1      -7.390   1.721  -1.006  1.00  0.00     0.000 A 
HETATM   40  C26 UNL     1      -7.433   0.387  -0.736  1.00  0.00     0.001 A 
HETATM   41  C27 UNL     1      -6.555  -0.161   0.157  1.00  0.00     0.011 A 
ENDBRANCH  33  36
ENDBRANCH   9  33
TORSDOF 7
