REMARK  8 active torsions:
REMARK  status: ('A' for Active; 'I' for Inactive)
REMARK    1  A    between atoms: C5_5  and  S1_6 
REMARK    2  A    between atoms: S1_6  and  N1_9 
REMARK    3  A    between atoms: C10_14  and  C11_15 
REMARK       I    between atoms: C11_15  and  N2_17 
REMARK    4  A    between atoms: N2_17  and  C12_18 
REMARK    5  A    between atoms: C20_27  and  N4_28 
REMARK       I    between atoms: N4_28  and  C21_29 
REMARK    6  A    between atoms: C21_29  and  C22_31 
REMARK    7  A    between atoms: C22_31  and  C23_32 
REMARK    8  A    between atoms: C23_32  and  C24_33 
REMARK       I    between atoms: C24_33  and  N5_35 
ROOT
HETATM    1  C12 UNL     1      -5.662   0.109  -0.256  1.00  0.00     0.085 A 
HETATM    2  C13 UNL     1      -5.385   1.400   0.141  1.00  0.00     0.019 A 
HETATM    3  C14 UNL     1      -6.377   2.338   0.335  1.00  0.00     0.002 A 
HETATM    4  C15 UNL     1      -7.690   1.993   0.132  1.00  0.00     0.010 A 
HETATM    5  C16 UNL     1      -7.992   0.727  -0.259  1.00  0.00     0.070 A 
HETATM    6  C17 UNL     1      -9.360   0.342  -0.478  1.00  0.00     0.101 C 
HETATM    7  N3  UNL     1     -10.482   0.046  -0.654  1.00  0.00    -0.191 NA
HETATM    8  C18 UNL     1      -6.984  -0.223  -0.456  1.00  0.00     0.029 A 
ENDROOT
BRANCH   1   9
HETATM    9  N2  UNL     1      -4.604  -0.832  -0.445  1.00  0.00    -0.210 NA
HETATM   10  C11 UNL     1      -3.263  -0.468  -0.235  1.00  0.00     0.277 C 
HETATM   11  O3  UNL     1      -3.015   0.703   0.125  1.00  0.00    -0.268 OA
BRANCH  10  12
HETATM   12  C10 UNL     1      -2.118  -1.394  -0.413  1.00  0.00     0.172 C 
HETATM   13  N1  UNL     1      -0.872  -0.767  -0.133  1.00  0.00    -0.267 N 
HETATM   14  C6  UNL     1      -0.037  -1.448   0.801  1.00  0.00     0.114 C 
HETATM   15  C7  UNL     1      -0.738  -1.713   2.091  1.00  0.00     0.025 C 
HETATM   16  C8  UNL     1      -2.032  -2.443   1.867  1.00  0.00     0.004 C 
HETATM   17  C9  UNL     1      -2.367  -2.635   0.415  1.00  0.00     0.033 C 
BRANCH  13  18
HETATM   18  S1  UNL     1      -0.051  -0.162  -1.498  1.00  0.00     0.264 S 
HETATM   19  O1  UNL     1       0.584  -1.270  -2.305  1.00  0.00    -0.200 OA
HETATM   20  O2  UNL     1      -1.080   0.481  -2.408  1.00  0.00    -0.200 OA
BRANCH  18  21
HETATM   21  C5  UNL     1       1.154   1.013  -1.005  1.00  0.00     0.105 A 
HETATM   22  C4  UNL     1       0.717   2.339  -0.940  1.00  0.00     0.013 A 
HETATM   23  C3  UNL     1       1.575   3.352  -0.564  1.00  0.00    -0.002 A 
HETATM   24  C2  UNL     1       2.869   2.998  -0.258  1.00  0.00    -0.004 A 
HETATM   25  C1  UNL     1       3.783   4.114   0.147  1.00  0.00     0.033 C 
HETATM   26  C20 UNL     1       3.309   1.692  -0.319  1.00  0.00     0.081 A 
HETATM   27  C19 UNL     1       2.446   0.684  -0.696  1.00  0.00     0.032 A 
BRANCH  26  28
HETATM   28  N4  UNL     1       4.669   1.457   0.021  1.00  0.00    -0.212 NA
HETATM   29  C21 UNL     1       5.172   0.148  -0.023  1.00  0.00     0.256 C 
HETATM   30  O4  UNL     1       4.413  -0.776  -0.360  1.00  0.00    -0.270 OA
BRANCH  29  31
HETATM   31  C22 UNL     1       6.593  -0.187   0.320  1.00  0.00     0.100 C 
BRANCH  31  32
HETATM   32  C23 UNL     1       6.834  -1.665   0.181  1.00  0.00     0.102 C 
BRANCH  32  33
HETATM   33  C24 UNL     1       8.229  -1.977   0.520  1.00  0.00     0.282 C 
HETATM   34  O5  UNL     1       9.037  -1.054   0.869  1.00  0.00    -0.268 OA
HETATM   35  N5  UNL     1       8.727  -3.297   0.474  1.00  0.00    -0.058 NA
HETATM   36  O6  UNL     1       9.997  -3.625   0.776  1.00  0.00    -0.058 OA
ENDBRANCH  32  33
ENDBRANCH  31  32
ENDBRANCH  29  31
ENDBRANCH  26  28
ENDBRANCH  18  21
ENDBRANCH  13  18
ENDBRANCH  10  12
ENDBRANCH   1   9
TORSDOF 8
