REMARK  11 active torsions:
REMARK  status: ('A' for Active; 'I' for Inactive)
REMARK    1  A    between atoms: C5_5  and  C6_6 
REMARK    2  A    between atoms: C11_12  and  N1_13 
REMARK       I    between atoms: N1_13  and  C12_14 
REMARK    3  A    between atoms: C12_14  and  C13_16 
REMARK    4  A    between atoms: C13_16  and  O2_17 
REMARK    5  A    between atoms: O2_17  and  C14_18 
REMARK    6  A    between atoms: C14_18  and  C15_20 
REMARK    7  A    between atoms: C20_25  and  N2_26 
REMARK    8  A    between atoms: N2_26  and  N3_27 
REMARK    9  A    between atoms: C21_28  and  C22_29 
REMARK   10  A    between atoms: C38_50  and  N6_51 
REMARK   11  A    between atoms: N6_51  and  C39_52 
ROOT
HETATM    1  C1  UNL     1       1.183  -0.424   4.674  1.00  0.00     0.033 C 
HETATM    2  C2  UNL     1       1.037  -0.524   3.145  1.00  0.00     0.004 C 
HETATM    3  C3  UNL     1       0.181  -1.393   2.759  1.00  0.00    -0.002 C 
HETATM    4  C4  UNL     1      -0.345  -1.891   1.572  1.00  0.00    -0.003 C 
HETATM    5  C5  UNL     1      -0.140  -3.047   1.034  1.00  0.00    -0.003 C 
HETATM    6  C28 UNL     1       0.749  -4.034   1.665  1.00  0.00     0.173 C 
HETATM    7  S1  UNL     1       2.424  -3.717   1.120  1.00  0.00     0.270 S 
HETATM    8  O4  UNL     1       3.091  -3.066   2.303  1.00  0.00    -0.203 OA
HETATM    9  O5  UNL     1       3.048  -5.134   1.125  1.00  0.00    -0.203 OA
HETATM   10  N4  UNL     1       2.654  -3.091  -0.363  1.00  0.00    -0.142 NA
HETATM   11  C29 UNL     1       2.381  -2.146  -1.299  1.00  0.00     0.174 A 
HETATM   12  N5  UNL     1       1.475  -2.478  -2.290  1.00  0.00    -0.225 NA
HETATM   13  C30 UNL     1       1.103  -1.697  -3.275  1.00  0.00     0.101 A 
HETATM   14  C31 UNL     1       1.625  -0.438  -3.374  1.00  0.00     0.021 A 
HETATM   15  C32 UNL     1       2.525  -0.011  -2.450  1.00  0.00     0.005 A 
HETATM   16  C33 UNL     1       2.898  -0.867  -1.419  1.00  0.00     0.039 A 
HETATM   17  C34 UNL     1       3.904  -0.272  -0.515  1.00  0.00     0.029 C 
HETATM   18  C35 UNL     1       5.018   0.326  -1.264  1.00  0.00     0.002 C 
HETATM   19  C36 UNL     1       6.153   0.913  -0.912  1.00  0.00     0.001 C 
HETATM   20  C37 UNL     1       6.504   1.068   0.521  1.00  0.00     0.015 C 
HETATM   21  C38 UNL     1       6.061   0.413   1.590  1.00  0.00     0.066 C 
HETATM   22  C45 UNL     1       5.075  -0.671   1.609  1.00  0.00     0.105 C 
HETATM   23  C46 UNL     1       3.804  -0.284   0.829  1.00  0.00     0.115 C 
HETATM   24  N7  UNL     1       2.785  -0.018   1.629  1.00  0.00    -0.411 NA
HETATM   25  C47 UNL     1       1.878   0.373   2.319  1.00  0.00     0.105 C 
HETATM   26  C48 UNL     1       1.405   1.826   2.525  1.00  0.00     0.066 C 
ENDROOT
BRANCH   5  27
HETATM   27  C6  UNL     1      -0.826  -3.357  -0.252  1.00  0.00     0.015 A 
HETATM   28  C7  UNL     1      -0.663  -4.568  -0.887  1.00  0.00     0.002 A 
HETATM   29  C8  UNL     1      -1.309  -4.831  -2.082  1.00  0.00     0.011 A 
HETATM   30  C9  UNL     1      -2.132  -3.907  -2.682  1.00  0.00     0.059 A 
HETATM   31 CL1  UNL     1      -2.925  -4.289  -4.193  1.00  0.00    -0.082 Cl
HETATM   32  C10 UNL     1      -2.298  -2.692  -2.047  1.00  0.00     0.031 A 
HETATM   33  C11 UNL     1      -1.650  -2.434  -0.853  1.00  0.00     0.085 A 
BRANCH  33  34
HETATM   34  N1  UNL     1      -1.800  -1.187  -0.169  1.00  0.00    -0.210 NA
HETATM   35  C12 UNL     1      -2.621  -0.190  -0.722  1.00  0.00     0.286 C 
HETATM   36  O1  UNL     1      -3.210  -0.402  -1.802  1.00  0.00    -0.267 OA
BRANCH  35  37
HETATM   37  C13 UNL     1      -2.784   1.098  -0.028  1.00  0.00     0.241 C 
BRANCH  37  38
HETATM   38  O2  UNL     1      -3.635   2.001  -0.702  1.00  0.00    -0.288 OA
BRANCH  38  39
HETATM   39  C14 UNL     1      -3.386   2.466  -1.989  1.00  0.00     0.298 C 
HETATM   40  O3  UNL     1      -2.319   2.013  -2.526  1.00  0.00    -0.259 OA
BRANCH  39  41
HETATM   41  C15 UNL     1      -4.258   3.391  -2.676  1.00  0.00     0.083 A 
HETATM   42  C16 UNL     1      -4.002   3.843  -3.947  1.00  0.00     0.007 A 
HETATM   43  C17 UNL     1      -4.857   4.731  -4.583  1.00  0.00     0.000 A 
HETATM   44  C18 UNL     1      -5.988   5.175  -3.934  1.00  0.00     0.002 A 
HETATM   45  C19 UNL     1      -6.266   4.730  -2.648  1.00  0.00     0.021 A 
HETATM   46  C20 UNL     1      -5.388   3.844  -2.049  1.00  0.00     0.108 A 
BRANCH  46  47
HETATM   47  N2  UNL     1      -5.683   3.400  -0.737  1.00  0.00    -0.148 NA
BRANCH  47  48
HETATM   48  N3  UNL     1      -6.469   2.261  -0.564  1.00  0.00    -0.146 NA
HETATM   49  C21 UNL     1      -7.460   2.289   0.279  1.00  0.00     0.122 C 
BRANCH  49  50
HETATM   50  C22 UNL     1      -8.316   1.141   0.504  1.00  0.00     0.021 A 
HETATM   51  C23 UNL     1      -9.341   1.247   1.412  1.00  0.00     0.002 A 
HETATM   52  C24 UNL     1     -10.189   0.221   1.682  1.00  0.00     0.000 A 
HETATM   53  C25 UNL     1     -10.050  -1.006   1.037  1.00  0.00     0.000 A 
HETATM   54  C26 UNL     1      -9.019  -1.121   0.121  1.00  0.00     0.000 A 
HETATM   55  C27 UNL     1      -8.168  -0.072  -0.142  1.00  0.00     0.002 A 
ENDBRANCH  49  50
ENDBRANCH  47  48
ENDBRANCH  46  47
ENDBRANCH  39  41
ENDBRANCH  38  39
ENDBRANCH  37  38
ENDBRANCH  35  37
ENDBRANCH  33  34
ENDBRANCH   5  27
BRANCH  21  56
HETATM   56  N6  UNL     1       6.637   0.848   2.822  1.00  0.00    -0.249 NA
BRANCH  56  57
HETATM   57  C39 UNL     1       7.841   1.590   2.799  1.00  0.00     0.091 A 
HETATM   58  C40 UNL     1       8.453   1.887   1.607  1.00  0.00     0.020 A 
HETATM   59  C41 UNL     1       9.631   2.614   1.589  1.00  0.00     0.002 A 
HETATM   60  C42 UNL     1      10.219   3.057   2.754  1.00  0.00     0.001 A 
HETATM   61  C43 UNL     1       9.607   2.761   3.945  1.00  0.00     0.013 A 
HETATM   62  C44 UNL     1       8.424   2.031   3.964  1.00  0.00     0.075 A 
HETATM   63 CL2  UNL     1       7.722   1.704   5.522  1.00  0.00    -0.081 Cl
ENDBRANCH  56  57
ENDBRANCH  21  56
TORSDOF 11
