REMARK  8 active torsions:
REMARK  status: ('A' for Active; 'I' for Inactive)
REMARK    1  A    between atoms: C8_8  and  N1_9 
REMARK       I    between atoms: N1_9  and  C9_10 
REMARK    2  A    between atoms: C9_10  and  C10_12 
REMARK       I    between atoms: N2_16  and  C14_17 
REMARK    3  A    between atoms: C14_17  and  C15_19 
REMARK    4  A    between atoms: C19_23  and  N3_24 
REMARK       I    between atoms: N3_24  and  C20_25 
REMARK    5  A    between atoms: C20_25  and  C21_27 
REMARK    6  A    between atoms: C21_27  and  N4_28 
REMARK       I    between atoms: N4_28  and  C22_29 
REMARK    7  A    between atoms: C22_29  and  C23_31 
REMARK    8  A    between atoms: C23_31  and  C24_32 
ROOT
HETATM    1  C15 UNL     1       0.738  -0.994   0.582  1.00  0.00     0.086 A 
HETATM    2  C16 UNL     1       0.942  -0.545   1.860  1.00  0.00     0.026 A 
HETATM    3  C17 UNL     1       2.136   0.102   2.125  1.00  0.00     0.090 A 
HETATM    4  C18 UNL     1       3.057   0.274   1.139  1.00  0.00     0.096 A 
HETATM    5  C19 UNL     1       2.886  -0.173  -0.184  1.00  0.00     0.118 A 
HETATM    6  C25 UNL     1       1.696  -0.810  -0.422  1.00  0.00     0.163 A 
HETATM    7  F1  UNL     1       1.434  -1.299  -1.651  1.00  0.00    -0.203 F 
HETATM    8  C26 UNL     1       4.214   0.939   1.486  1.00  0.00     0.284 A 
HETATM    9  O7  UNL     1       5.079   1.117   0.604  1.00  0.00    -0.265 OA
HETATM   10  N5  UNL     1       4.408   1.392   2.758  1.00  0.00    -0.176 NA
HETATM   11  C27 UNL     1       3.467   1.193   3.686  1.00  0.00     0.240 A 
HETATM   12  N6  UNL     1       3.727   1.687   4.996  1.00  0.00    -0.059 NA
HETATM   13  N7  UNL     1       2.304   0.540   3.388  1.00  0.00    -0.214 NA
ENDROOT
BRANCH   1  14
HETATM   14  C14 UNL     1      -0.513  -1.676   0.238  1.00  0.00     0.259 C 
HETATM   15  N2  UNL     1      -1.642  -0.966  -0.217  1.00  0.00    -0.317 N 
HETATM   16  C13 UNL     1      -1.458   0.455  -0.311  1.00  0.00     0.104 C 
HETATM   17  C28 UNL     1      -2.800  -1.752  -0.512  1.00  0.00     0.105 C 
HETATM   18  C12 UNL     1      -2.120   1.110  -1.474  1.00  0.00     0.025 C 
HETATM   19  C11 UNL     1      -3.628   1.154  -1.339  1.00  0.00     0.011 C 
HETATM   20  C10 UNL     1      -4.281  -0.127  -1.736  1.00  0.00     0.083 C 
HETATM   21  C29 UNL     1      -3.393  -1.316  -1.821  1.00  0.00     0.034 C 
HETATM   22  O2  UNL     1      -0.577  -2.927   0.352  1.00  0.00    -0.267 OA
BRANCH  20  23
HETATM   23  C9  UNL     1      -5.478  -0.328  -0.897  1.00  0.00     0.255 C 
HETATM   24  N1  UNL     1      -6.480   0.675  -0.954  1.00  0.00    -0.212 NA
HETATM   25  O1  UNL     1      -5.630  -1.314  -0.169  1.00  0.00    -0.270 OA
BRANCH  24  26
HETATM   26  C8  UNL     1      -7.684   0.642  -0.219  1.00  0.00     0.076 A 
HETATM   27  C2  UNL     1      -8.785   0.042  -0.792  1.00  0.00    -0.004 A 
HETATM   28  C1  UNL     1      -8.662  -0.547  -2.150  1.00  0.00     0.033 C 
HETATM   29  C3  UNL     1      -9.979  -0.008  -0.109  1.00  0.00    -0.003 A 
HETATM   30  C4  UNL     1     -10.082   0.545   1.158  1.00  0.00    -0.001 A 
HETATM   31  C5  UNL     1      -8.986   1.150   1.746  1.00  0.00    -0.003 A 
HETATM   32  C6  UNL     1      -7.802   1.185   1.039  1.00  0.00    -0.004 A 
HETATM   33  C7  UNL     1      -6.573   1.822   1.608  1.00  0.00     0.033 C 
ENDBRANCH  24  26
ENDBRANCH  20  23
ENDBRANCH   1  14
BRANCH   5  34
HETATM   34  N3  UNL     1       3.943   0.051  -1.059  1.00  0.00    -0.208 NA
HETATM   35  C20 UNL     1       4.046  -0.003  -2.433  1.00  0.00     0.281 C 
HETATM   36  O3  UNL     1       2.976  -0.298  -3.084  1.00  0.00    -0.268 OA
BRANCH  35  37
HETATM   37  C21 UNL     1       5.273   0.250  -3.221  1.00  0.00     0.218 C 
BRANCH  37  38
HETATM   38  N4  UNL     1       6.402   0.523  -2.386  1.00  0.00    -0.227 NA
HETATM   39  C22 UNL     1       6.958  -0.358  -1.445  1.00  0.00     0.263 C 
HETATM   40  O4  UNL     1       6.454  -1.492  -1.289  1.00  0.00    -0.270 OA
BRANCH  39  41
HETATM   41  C23 UNL     1       8.136   0.062  -0.644  1.00  0.00     0.187 C 
BRANCH  41  42
HETATM   42  C24 UNL     1       8.602  -0.956   0.295  1.00  0.00     0.195 C 
HETATM   43  O5  UNL     1       7.966  -1.120   1.368  1.00  0.00    -0.647 OA
HETATM   44  O6  UNL     1       9.707  -1.766   0.093  1.00  0.00    -0.647 OA
ENDBRANCH  41  42
ENDBRANCH  39  41
ENDBRANCH  37  38
ENDBRANCH  35  37
ENDBRANCH   5  34
TORSDOF 8
