REMARK  6 active torsions:
REMARK  status: ('A' for Active; 'I' for Inactive)
REMARK    1  A    between atoms: C7_7  and  C8_8 
REMARK    2  A    between atoms: N1_9  and  N2_10 
REMARK       I    between atoms: N2_10  and  C9_11 
REMARK    3  A    between atoms: C9_11  and  C10_13 
REMARK    4  A    between atoms: C10_13  and  C11_14 
REMARK    5  A    between atoms: C11_14  and  C12_15 
REMARK    6  A    between atoms: C12_15  and  C13_16 
ROOT
HETATM    1  N2  UNL     1       1.288  -0.126   0.578  1.00  0.00    -0.110 NA
HETATM    2  C9  UNL     1      -0.080  -0.549   0.484  1.00  0.00     0.274 C 
HETATM    3  O1  UNL     1      -0.399  -1.746   0.609  1.00  0.00    -0.269 OA
ENDROOT
BRANCH   2   4
HETATM    4  C10 UNL     1      -1.101   0.498   0.233  1.00  0.00     0.092 C 
BRANCH   4   5
HETATM    5  C11 UNL     1      -2.447  -0.148   0.172  1.00  0.00     0.015 C 
BRANCH   5   6
HETATM    6  C12 UNL     1      -3.552   0.856  -0.083  1.00  0.00     0.027 C 
BRANCH   6   7
HETATM    7  C13 UNL     1      -4.825   0.123  -0.125  1.00  0.00    -0.022 A 
HETATM    8  C14 UNL     1      -5.538  -0.058   1.020  1.00  0.00    -0.004 A 
HETATM    9  C15 UNL     1      -6.727  -0.741   0.988  1.00  0.00    -0.000 A 
HETATM   10  C16 UNL     1      -7.211  -1.252  -0.214  1.00  0.00    -0.000 A 
HETATM   11  C17 UNL     1      -6.475  -1.057  -1.361  1.00  0.00    -0.000 A 
HETATM   12  C18 UNL     1      -5.298  -0.375  -1.298  1.00  0.00    -0.004 A 
ENDBRANCH   6   7
ENDBRANCH   5   6
ENDBRANCH   4   5
ENDBRANCH   2   4
BRANCH   1  13
HETATM   13  N1  UNL     1       2.302  -0.985   0.803  1.00  0.00    -0.144 NA
HETATM   14  C8  UNL     1       3.486  -0.959   0.762  1.00  0.00     0.122 C 
BRANCH  14  15
HETATM   15  C7  UNL     1       4.526  -0.055   0.464  1.00  0.00     0.017 A 
HETATM   16  C2  UNL     1       4.280   1.238   0.087  1.00  0.00    -0.020 A 
HETATM   17  C1  UNL     1       2.935   1.849  -0.055  1.00  0.00     0.031 C 
HETATM   18  C3  UNL     1       5.380   2.051  -0.185  1.00  0.00    -0.004 A 
HETATM   19  C4  UNL     1       6.676   1.624  -0.096  1.00  0.00    -0.000 A 
HETATM   20  C5  UNL     1       6.911   0.321   0.284  1.00  0.00     0.000 A 
HETATM   21  C6  UNL     1       5.870  -0.507   0.559  1.00  0.00     0.001 A 
ENDBRANCH  14  15
ENDBRANCH   1  13
TORSDOF 6
