REMARK  5 active torsions:
REMARK  status: ('A' for Active; 'I' for Inactive)
REMARK    1  A    between atoms: C6_6  and  C7_7 
REMARK    2  A    between atoms: C9_9  and  S1_10 
REMARK    3  A    between atoms: S1_10  and  N1_13 
REMARK    4  A    between atoms: C16_22  and  N4_23 
REMARK       I    between atoms: N4_23  and  C17_24 
REMARK       I    between atoms: C17_24  and  N5_26 
REMARK    5  A    between atoms: N5_26  and  C18_27 
ROOT
HETATM    1  N1  UNL     1      -0.131  -0.861   0.869  1.00  0.00    -0.116 N 
HETATM    2  N2  UNL     1       0.500  -2.023   0.995  1.00  0.00    -0.048 NA
HETATM    3  N3  UNL     1      -0.055  -3.183   0.740  1.00  0.00    -0.129 NA
HETATM    4  C10 UNL     1      -1.325  -3.231   0.329  1.00  0.00     0.107 A 
HETATM    5  C11 UNL     1      -2.000  -4.390   0.031  1.00  0.00     0.021 A 
HETATM    6  C12 UNL     1      -3.310  -4.382  -0.395  1.00  0.00     0.002 A 
HETATM    7  C13 UNL     1      -3.976  -3.203  -0.531  1.00  0.00     0.000 A 
HETATM    8  C14 UNL     1      -3.345  -2.032  -0.247  1.00  0.00     0.005 A 
HETATM    9  C15 UNL     1      -2.014  -2.025   0.186  1.00  0.00     0.056 A 
HETATM   10  C16 UNL     1      -1.429  -0.820   0.454  1.00  0.00     0.183 A 
ENDROOT
BRANCH   1  11
HETATM   11  S1  UNL     1       0.641   0.643   1.205  1.00  0.00     0.288 S 
HETATM   12  O1  UNL     1      -0.281   1.789   0.974  1.00  0.00    -0.198 OA
HETATM   13  O2  UNL     1       1.141   0.707   2.620  1.00  0.00    -0.198 OA
BRANCH  11  14
HETATM   14  C9  UNL     1       1.991   0.803   0.088  1.00  0.00     0.106 A 
HETATM   15  C8  UNL     1       3.248   0.305   0.417  1.00  0.00     0.015 A 
HETATM   16  C7  UNL     1       4.306   0.441  -0.467  1.00  0.00     0.028 A 
HETATM   17  C27 UNL     1       4.050   1.077  -1.650  1.00  0.00     0.140 A 
HETATM   18  C26 UNL     1       2.816   1.583  -2.009  1.00  0.00     0.030 A 
HETATM   19  F1  UNL     1       5.057   1.239  -2.557  1.00  0.00    -0.204 F 
HETATM   20  C25 UNL     1       1.799   1.421  -1.095  1.00  0.00     0.015 A 
BRANCH  16  21
HETATM   21  C6  UNL     1       5.639  -0.056  -0.166  1.00  0.00     0.002 A 
HETATM   22  C5  UNL     1       6.405  -0.725  -1.087  1.00  0.00     0.000 A 
HETATM   23  C4  UNL     1       7.661  -1.174  -0.736  1.00  0.00    -0.000 A 
HETATM   24  C3  UNL     1       8.156  -0.950   0.554  1.00  0.00    -0.004 A 
HETATM   25  C2  UNL     1       7.390  -0.282   1.467  1.00  0.00    -0.022 A 
HETATM   26  C1  UNL     1       7.874  -0.019   2.858  1.00  0.00     0.031 C 
HETATM   27  C28 UNL     1       6.151   0.161   1.121  1.00  0.00    -0.004 A 
ENDBRANCH  16  21
ENDBRANCH  11  14
ENDBRANCH   1  11
BRANCH  10  28
HETATM   28  N4  UNL     1      -1.977   0.309   0.343  1.00  0.00    -0.171 NA
HETATM   29  C17 UNL     1      -3.293   0.602  -0.060  1.00  0.00     0.366 C 
HETATM   30  O3  UNL     1      -4.280   0.368   0.682  1.00  0.00    -0.243 OA
HETATM   31  N5  UNL     1      -3.563   1.190  -1.356  1.00  0.00    -0.219 NA
BRANCH  31  32
HETATM   32  C18 UNL     1      -4.915   1.486  -1.737  1.00  0.00     0.108 C 
HETATM   33  C19 UNL     1      -5.051   2.928  -2.173  1.00  0.00     0.025 C 
HETATM   34  C20 UNL     1      -5.711   3.659  -1.018  1.00  0.00     0.002 C 
HETATM   35  C21 UNL     1      -7.215   3.700  -1.164  1.00  0.00     0.000 C 
HETATM   36  C22 UNL     1      -7.846   2.546  -0.396  1.00  0.00     0.000 C 
HETATM   37  C23 UNL     1      -7.281   1.229  -0.922  1.00  0.00     0.002 C 
HETATM   38  C24 UNL     1      -5.825   1.169  -0.578  1.00  0.00     0.025 C 
ENDBRANCH  31  32
ENDBRANCH  10  28
TORSDOF 5
