REMARK  15 active torsions:
REMARK  status: ('A' for Active; 'I' for Inactive)
REMARK    1  A    between atoms: C7_7  and  C8_8 
REMARK    2  A    between atoms: C8_8  and  C9_9 
REMARK    3  A    between atoms: C8_8  and  N5_37 
REMARK    4  A    between atoms: C9_9  and  C10_11 
REMARK    5  A    between atoms: C12_14  and  C13_15 
REMARK    6  A    between atoms: C16_18  and  C17_19 
REMARK       I    between atoms: N5_37  and  C28_38 
REMARK    7  A    between atoms: N5_37  and  C43_56 
REMARK    8  A    between atoms: C28_38  and  C29_40 
REMARK    9  A    between atoms: C29_40  and  O5_41 
REMARK   10  A    between atoms: O5_41  and  C30_42 
REMARK   11  A    between atoms: C33_45  and  C34_46 
REMARK   12  A    between atoms: C34_46  and  C35_48 
REMARK   13  A    between atoms: C48_61  and  O7_62 
REMARK   14  A    between atoms: O7_62  and  C49_63 
REMARK   15  A    between atoms: C49_63  and  C50_64 
ROOT
HETATM    1  C8  UNL     1      -0.927   1.227  -0.795  1.00  0.00     0.105 C 
ENDROOT
BRANCH   1   2
HETATM    2  C7  UNL     1      -0.594   2.604  -0.997  1.00  0.00     0.015 A 
HETATM    3  C2  UNL     1      -0.935   3.355  -2.116  1.00  0.00    -0.020 A 
HETATM    4  C1  UNL     1      -1.716   2.661  -3.177  1.00  0.00     0.031 C 
HETATM    5  C3  UNL     1      -0.589   4.675  -2.269  1.00  0.00    -0.004 A 
HETATM    6  C4  UNL     1       0.129   5.318  -1.293  1.00  0.00    -0.000 A 
HETATM    7  C5  UNL     1       0.494   4.623  -0.161  1.00  0.00     0.000 A 
HETATM    8  C6  UNL     1       0.136   3.297  -0.025  1.00  0.00     0.001 A 
ENDBRANCH   1   2
BRANCH   1   9
HETATM    9  C9  UNL     1       0.039   0.297  -0.289  1.00  0.00     0.214 C 
HETATM   10  O1  UNL     1      -0.312  -0.636   0.504  1.00  0.00    -0.285 OA
BRANCH   9  11
HETATM   11  C10 UNL     1       1.461   0.342  -0.640  1.00  0.00     0.067 A 
HETATM   12  C11 UNL     1       2.150   1.201  -1.449  1.00  0.00     0.126 A 
HETATM   13  O2  UNL     1       3.391   0.832  -1.467  1.00  0.00    -0.305 OA
HETATM   14  C12 UNL     1       3.652  -0.212  -0.745  1.00  0.00     0.100 A 
HETATM   15  C27 UNL     1       2.429  -0.571  -0.184  1.00  0.00     0.030 A 
BRANCH  14  16
HETATM   16  C13 UNL     1       4.883  -0.948  -0.489  1.00  0.00     0.023 A 
HETATM   17  C14 UNL     1       4.898  -2.050   0.369  1.00  0.00     0.002 A 
HETATM   18  C15 UNL     1       6.032  -2.759   0.615  1.00  0.00     0.002 A 
HETATM   19  C16 UNL     1       7.281  -2.443   0.028  1.00  0.00     0.021 A 
HETATM   20  C25 UNL     1       7.230  -1.345  -0.818  1.00  0.00     0.002 A 
HETATM   21  C26 UNL     1       6.081  -0.635  -1.060  1.00  0.00     0.002 A 
BRANCH  19  22
HETATM   22  C17 UNL     1       8.415  -3.214   0.296  1.00  0.00     0.121 C 
HETATM   23  N1  UNL     1       8.533  -4.308   1.035  1.00  0.00    -0.145 NA
HETATM   24  N2  UNL     1       9.726  -4.474   1.846  1.00  0.00    -0.127 NA
HETATM   25  C18 UNL     1      11.066  -3.972   1.738  1.00  0.00     0.227 C 
HETATM   26  S1  UNL     1      11.966  -4.378   3.051  1.00  0.00    -0.045 SA
HETATM   27  S2  UNL     1      11.881  -3.071   0.558  1.00  0.00     0.158 S 
HETATM   28  O3  UNL     1      13.360  -3.673  -0.147  1.00  0.00    -0.234 OA
HETATM   29  N3  UNL     1      10.497  -3.445  -0.848  1.00  0.00    -0.184 NA
HETATM   30  C24 UNL     1      11.531  -1.296   0.230  1.00  0.00     0.154 A 
HETATM   31  C19 UNL     1       9.706  -2.632  -0.248  1.00  0.00     0.113 C 
HETATM   32  C20 UNL     1      10.182  -1.393   0.337  1.00  0.00     0.047 A 
HETATM   33  C21 UNL     1       9.382  -0.249   0.554  1.00  0.00     0.005 A 
HETATM   34  C22 UNL     1      10.105   0.921   0.624  1.00  0.00     0.021 A 
HETATM   35  C23 UNL     1      11.472   0.952   0.493  1.00  0.00     0.100 A 
HETATM   36  N4  UNL     1      12.228  -0.193   0.288  1.00  0.00    -0.234 NA
ENDBRANCH  19  22
ENDBRANCH  14  16
ENDBRANCH   9  11
ENDBRANCH   1   9
BRANCH   1  37
HETATM   37  N5  UNL     1      -2.299   0.878  -0.532  1.00  0.00    -0.271 N 
HETATM   38  C28 UNL     1      -2.940  -0.162  -1.268  1.00  0.00     0.272 C 
HETATM   39  O4  UNL     1      -2.333  -0.714  -2.242  1.00  0.00    -0.269 OA
BRANCH  38  40
HETATM   40  C29 UNL     1      -4.272  -0.653  -0.967  1.00  0.00     0.237 C 
BRANCH  40  41
HETATM   41  O5  UNL     1      -4.991  -0.064   0.054  1.00  0.00    -0.321 OA
BRANCH  41  42
HETATM   42  C30 UNL     1      -6.256  -0.585   0.353  1.00  0.00     0.095 A 
HETATM   43  C31 UNL     1      -6.747  -1.671  -0.365  1.00  0.00     0.024 A 
HETATM   44  C32 UNL     1      -7.968  -2.212  -0.107  1.00  0.00     0.005 A 
HETATM   45  C33 UNL     1      -8.756  -1.682   0.892  1.00  0.00     0.039 A 
HETATM   46  C41 UNL     1      -8.299  -0.601   1.627  1.00  0.00     0.005 A 
HETATM   47  C42 UNL     1      -7.040  -0.064   1.341  1.00  0.00     0.024 A 
BRANCH  45  48
HETATM   48  C34 UNL     1     -10.041  -2.332   1.117  1.00  0.00     0.196 C 
HETATM   49  O6  UNL     1     -11.015  -1.747   1.690  1.00  0.00    -0.287 OA
BRANCH  48  50
HETATM   50  C35 UNL     1     -10.258  -3.709   0.686  1.00  0.00     0.039 A 
HETATM   51  C36 UNL     1      -9.365  -4.307  -0.145  1.00  0.00     0.003 A 
HETATM   52  C37 UNL     1      -9.503  -5.619  -0.594  1.00  0.00     0.000 A 
HETATM   53  C38 UNL     1     -10.594  -6.338  -0.174  1.00  0.00     0.000 A 
HETATM   54  C39 UNL     1     -11.534  -5.755   0.681  1.00  0.00     0.000 A 
HETATM   55  C40 UNL     1     -11.349  -4.435   1.102  1.00  0.00     0.003 A 
ENDBRANCH  48  50
ENDBRANCH  45  48
ENDBRANCH  41  42
ENDBRANCH  40  41
ENDBRANCH  38  40
BRANCH  37  56
HETATM   56  C43 UNL     1      -3.007   1.549   0.478  1.00  0.00     0.089 A 
HETATM   57  C44 UNL     1      -2.723   1.303   1.800  1.00  0.00     0.020 A 
HETATM   58  C45 UNL     1      -3.375   1.924   2.840  1.00  0.00     0.002 A 
HETATM   59  C46 UNL     1      -4.357   2.835   2.542  1.00  0.00     0.002 A 
HETATM   60  C47 UNL     1      -4.665   3.104   1.227  1.00  0.00     0.026 A 
HETATM   61  C48 UNL     1      -3.992   2.463   0.179  1.00  0.00     0.111 A 
BRANCH  61  62
HETATM   62  O7  UNL     1      -4.294   2.728  -1.135  1.00  0.00    -0.325 OA
BRANCH  62  63
HETATM   63  C49 UNL     1      -5.264   3.623  -1.605  1.00  0.00     0.175 C 
BRANCH  63  64
HETATM   64  C50 UNL     1      -4.985   5.012  -1.140  1.00  0.00     0.008 A 
HETATM   65  C51 UNL     1      -5.557   5.533  -0.018  1.00  0.00    -0.002 A 
HETATM   66  C52 UNL     1      -5.242   6.827   0.345  1.00  0.00    -0.000 A 
HETATM   67  C53 UNL     1      -4.361   7.597  -0.410  1.00  0.00    -0.000 A 
HETATM   68  C54 UNL     1      -3.777   7.081  -1.547  1.00  0.00    -0.000 A 
HETATM   69  C55 UNL     1      -4.101   5.791  -1.893  1.00  0.00    -0.002 A 
ENDBRANCH  63  64
ENDBRANCH  62  63
ENDBRANCH  61  62
ENDBRANCH  37  56
ENDBRANCH   1  37
TORSDOF 15
