REMARK  8 active torsions:
REMARK  status: ('A' for Active; 'I' for Inactive)
REMARK    1  A    between atoms: C7_7  and  C8_8 
REMARK       I    between atoms: C8_8  and  N1_10 
REMARK    2  A    between atoms: N1_10  and  C9_11 
REMARK    3  A    between atoms: N1_10  and  C23_26 
REMARK    4  A    between atoms: C10_12  and  C11_13 
REMARK    5  A    between atoms: C23_26  and  C24_27 
REMARK    6  A    between atoms: C23_26  and  C29_35 
REMARK    7  A    between atoms: C24_27  and  C25_29 
REMARK    8  A    between atoms: C25_29  and  N3_30 
ROOT
HETATM    1  C8  UNL     1      -0.793   1.342   0.836  1.00  0.00     0.264 C 
HETATM    2  O1  UNL     1      -2.010   1.728   0.936  1.00  0.00    -0.267 OA
HETATM    3  N1  UNL     1      -0.518   0.098   0.200  1.00  0.00    -0.274 N 
ENDROOT
BRANCH   3   4
HETATM    4  C9  UNL     1      -1.615  -0.638  -0.373  1.00  0.00     0.086 A 
HETATM    5  C10 UNL     1      -2.394  -1.564   0.267  1.00  0.00     0.098 A 
HETATM    6  N2  UNL     1      -3.300  -1.969  -0.681  1.00  0.00    -0.244 NA
HETATM    7  C17 UNL     1      -3.105  -1.341  -1.838  1.00  0.00     0.083 A 
HETATM    8  C18 UNL     1      -3.741  -1.393  -3.074  1.00  0.00     0.019 A 
HETATM    9  C22 UNL     1      -2.039  -0.479  -1.694  1.00  0.00     0.035 A 
HETATM   10  C19 UNL     1      -3.281  -0.590  -4.084  1.00  0.00     0.002 A 
HETATM   11  C20 UNL     1      -2.229   0.261  -3.942  1.00  0.00     0.000 A 
HETATM   12  C21 UNL     1      -1.578   0.328  -2.711  1.00  0.00     0.003 A 
BRANCH   5  13
HETATM   13  C11 UNL     1      -2.340  -2.049   1.635  1.00  0.00     0.019 A 
HETATM   14  C12 UNL     1      -3.262  -2.988   2.042  1.00  0.00     0.002 A 
HETATM   15  C13 UNL     1      -3.269  -3.492   3.343  1.00  0.00     0.000 A 
HETATM   16  C14 UNL     1      -2.347  -3.053   4.240  1.00  0.00     0.000 A 
HETATM   17  C15 UNL     1      -1.418  -2.120   3.866  1.00  0.00     0.000 A 
HETATM   18  C16 UNL     1      -1.432  -1.631   2.559  1.00  0.00     0.002 A 
ENDBRANCH   5  13
ENDBRANCH   3   4
BRANCH   3  19
HETATM   19  C23 UNL     1       0.809  -0.402   0.144  1.00  0.00     0.081 C 
BRANCH  19  20
HETATM   20  C24 UNL     1       1.723   0.205  -0.820  1.00  0.00     0.209 C 
HETATM   21  O2  UNL     1       1.324   1.043  -1.601  1.00  0.00    -0.288 OA
BRANCH  20  22
HETATM   22  C25 UNL     1       3.172  -0.150  -0.909  1.00  0.00     0.197 C 
BRANCH  22  23
HETATM   23  N3  UNL     1       3.853   0.611  -1.926  1.00  0.00    -0.242 N 
HETATM   24  C26 UNL     1       3.973   0.233  -3.199  1.00  0.00     0.097 A 
HETATM   25  C27 UNL     1       4.684   1.184  -3.919  1.00  0.00     0.043 A 
HETATM   26  C28 UNL     1       4.985   2.166  -2.981  1.00  0.00     0.122 A 
HETATM   27  N4  UNL     1       4.474   1.791  -1.803  1.00  0.00    -0.167 NA
ENDBRANCH  22  23
ENDBRANCH  20  22
ENDBRANCH  19  20
BRANCH  19  28
HETATM   28  C29 UNL     1       0.939  -1.901   0.208  1.00  0.00     0.042 A 
HETATM   29  C30 UNL     1       2.248  -2.564   0.153  1.00  0.00     0.006 A 
HETATM   30  C31 UNL     1       1.320  -2.564  -1.086  1.00  0.00     0.006 A 
ENDBRANCH  19  28
ENDBRANCH   3  19
BRANCH   1  31
HETATM   31  C7  UNL     1       0.197   2.224   1.387  1.00  0.00     0.053 A 
HETATM   32  C2  UNL     1       0.654   2.139   2.673  1.00  0.00    -0.017 A 
HETATM   33  C1  UNL     1       0.167   1.098   3.613  1.00  0.00     0.031 C 
HETATM   34  C3  UNL     1       1.603   3.019   3.181  1.00  0.00    -0.004 A 
HETATM   35  C4  UNL     1       2.114   4.018   2.379  1.00  0.00    -0.000 A 
HETATM   36  C5  UNL     1       1.684   4.144   1.077  1.00  0.00     0.000 A 
HETATM   37  C6  UNL     1       0.749   3.257   0.615  1.00  0.00     0.004 A 
ENDBRANCH   1  31
TORSDOF 8
