REMARK  6 active torsions:
REMARK  status: ('A' for Active; 'I' for Inactive)
REMARK    1  A    between atoms: C7_7  and  C8_8 
REMARK    2  A    between atoms: C8_8  and  N1_9 
REMARK       I    between atoms: N1_9  and  C10_11 
REMARK    3  A    between atoms: C10_11  and  C11_13 
REMARK       I    between atoms: C11_13  and  N2_15 
REMARK    4  A    between atoms: N2_15  and  C12_16 
REMARK    5  A    between atoms: C17_21  and  C18_22 
REMARK       I    between atoms: C18_22  and  N3_24 
REMARK    6  A    between atoms: C22_28  and  C23_29 
ROOT
HETATM    1  C12 UNL     1       0.117  -0.323   0.596  1.00  0.00     0.130 C 
HETATM    2  C13 UNL     1       0.700  -1.417   1.531  1.00  0.00     0.029 C 
HETATM    3  C14 UNL     1       0.207  -2.795   1.028  1.00  0.00     0.003 C 
HETATM    4  C15 UNL     1      -1.306  -2.779   1.019  1.00  0.00     0.005 C 
HETATM    5  C16 UNL     1      -1.849  -1.461   1.568  1.00  0.00     0.029 C 
HETATM    6  C17 UNL     1      -1.295  -0.322   0.684  1.00  0.00     0.034 C 
ENDROOT
BRANCH   1   7
HETATM    7  N2  UNL     1       0.831  -0.344  -0.618  1.00  0.00    -0.228 NA
HETATM    8  C11 UNL     1       2.231  -0.683  -0.628  1.00  0.00     0.331 C 
HETATM    9  O2  UNL     1       2.724  -0.950   0.513  1.00  0.00    -0.260 OA
BRANCH   8  10
HETATM   10  C10 UNL     1       3.051  -0.739  -1.816  1.00  0.00     0.315 C 
HETATM   11  N1  UNL     1       4.415  -1.082  -1.791  1.00  0.00    -0.307 N 
HETATM   12  C9  UNL     1       5.098  -1.113  -3.090  1.00  0.00     0.129 C 
HETATM   13  O1  UNL     1       2.498  -0.474  -2.933  1.00  0.00    -0.262 OA
BRANCH  11  14
HETATM   14  C8  UNL     1       5.239  -1.394  -0.646  1.00  0.00     0.131 C 
BRANCH  14  15
HETATM   15  C7  UNL     1       5.851  -0.146  -0.084  1.00  0.00    -0.004 A 
HETATM   16  C2  UNL     1       6.722  -0.311   0.990  1.00  0.00    -0.024 A 
HETATM   17  C1  UNL     1       7.030  -1.625   1.502  1.00  0.00     0.031 C 
HETATM   18  C3  UNL     1       7.276   0.850   1.519  1.00  0.00    -0.004 A 
HETATM   19  C4  UNL     1       6.977   2.090   0.996  1.00  0.00    -0.000 A 
HETATM   20  C5  UNL     1       6.127   2.214  -0.063  1.00  0.00    -0.000 A 
HETATM   21  C6  UNL     1       5.578   1.065  -0.578  1.00  0.00    -0.003 A 
ENDBRANCH  14  15
ENDBRANCH  11  14
ENDBRANCH   8  10
ENDBRANCH   1   7
BRANCH   6  22
HETATM   22  C18 UNL     1      -2.195  -0.149  -0.481  1.00  0.00     0.251 C 
HETATM   23  O3  UNL     1      -1.765   0.022  -1.622  1.00  0.00    -0.268 OA
HETATM   24  N3  UNL     1      -3.567  -0.195  -0.190  1.00  0.00    -0.315 N 
HETATM   25  C19 UNL     1      -4.093  -0.310   1.224  1.00  0.00     0.105 C 
HETATM   26  C22 UNL     1      -4.822  -0.230  -0.964  1.00  0.00     0.107 C 
HETATM   27  C20 UNL     1      -4.759  -1.681   1.033  1.00  0.00     0.026 C 
HETATM   28  C21 UNL     1      -5.552  -1.373  -0.212  1.00  0.00     0.029 C 
BRANCH  26  29
HETATM   29  C23 UNL     1      -5.489   1.066  -0.527  1.00  0.00     0.009 A 
HETATM   30  C24 UNL     1      -5.707   1.268   0.858  1.00  0.00    -0.002 A 
HETATM   31  C25 UNL     1      -6.174   2.498   1.318  1.00  0.00    -0.000 A 
HETATM   32  C26 UNL     1      -6.432   3.533   0.426  1.00  0.00     0.001 A 
HETATM   33  C27 UNL     1      -6.230   3.335  -0.932  1.00  0.00     0.011 A 
HETATM   34  C28 UNL     1      -5.768   2.107  -1.343  1.00  0.00     0.056 A 
HETATM   35 CL1  UNL     1      -5.667   1.849  -3.107  1.00  0.00    -0.083 Cl
ENDBRANCH  26  29
ENDBRANCH   6  22
TORSDOF 6
