REMARK  10 active torsions:
REMARK  status: ('A' for Active; 'I' for Inactive)
REMARK       I    between atoms: N1_5  and  C5_6 
REMARK    1  A    between atoms: C5_6  and  C6_8 
REMARK    2  A    between atoms: C10_12  and  S1_13 
REMARK    3  A    between atoms: S1_13  and  N2_16 
REMARK       I    between atoms: N2_16  and  C11_17 
REMARK    4  A    between atoms: C11_17  and  C12_19 
REMARK    5  A    between atoms: C12_19  and  C13_20 
REMARK    6  A    between atoms: C18_25  and  C19_26 
REMARK       I    between atoms: C19_26  and  N3_28 
REMARK    7  A    between atoms: C22_31  and  C23_32 
REMARK    8  A    between atoms: C23_32  and  C24_34 
REMARK    9  A    between atoms: C24_34  and  C25_36 
REMARK   10  A    between atoms: C25_36  and  C26_37 
ROOT
HETATM    1  C13 UNL     1       0.343  -1.480   1.673  1.00  0.00     0.018 C 
HETATM    2  C14 UNL     1       1.164  -1.954   2.839  1.00  0.00     0.001 C 
HETATM    3  C15 UNL     1       1.748  -3.309   2.432  1.00  0.00     0.000 C 
HETATM    4  C16 UNL     1       1.045  -3.862   1.203  1.00  0.00     0.001 C 
HETATM    5  C17 UNL     1      -0.470  -3.796   1.435  1.00  0.00     0.009 C 
HETATM    6  C18 UNL     1      -0.832  -2.326   1.399  1.00  0.00     0.080 C 
ENDROOT
BRANCH   1   7
HETATM    7  C12 UNL     1       0.200  -0.017   1.549  1.00  0.00     0.091 C 
BRANCH   7   8
HETATM    8  C11 UNL     1       1.476   0.708   1.387  1.00  0.00     0.266 C 
HETATM    9  N2  UNL     1       1.431   2.122   1.269  1.00  0.00    -0.122 NA
HETATM   10  O4  UNL     1       2.612   0.174   1.342  1.00  0.00    -0.270 OA
BRANCH   9  11
HETATM   11  S1  UNL     1       2.850   3.063   1.075  1.00  0.00     0.288 S 
HETATM   12  O2  UNL     1       2.993   4.113   2.146  1.00  0.00    -0.198 OA
HETATM   13  O3  UNL     1       2.706   3.802  -0.244  1.00  0.00    -0.198 OA
BRANCH  11  14
HETATM   14  C10 UNL     1       4.294   2.122   1.012  1.00  0.00     0.105 A 
HETATM   15  C9  UNL     1       5.067   1.785   2.105  1.00  0.00     0.013 A 
HETATM   16  C8  UNL     1       6.208   1.023   1.955  1.00  0.00     0.001 A 
HETATM   17  C7  UNL     1       6.606   0.579   0.706  1.00  0.00     0.005 A 
HETATM   18  C6  UNL     1       5.857   0.899  -0.406  1.00  0.00     0.057 A 
HETATM   19  C34 UNL     1       4.724   1.660  -0.216  1.00  0.00     0.018 A 
BRANCH  18  20
HETATM   20  C5  UNL     1       6.264   0.434  -1.737  1.00  0.00     0.257 C 
HETATM   21  N1  UNL     1       7.428  -0.345  -1.897  1.00  0.00    -0.317 N 
HETATM   22  C4  UNL     1       7.832  -0.803  -3.201  1.00  0.00     0.104 C 
HETATM   23  C35 UNL     1       8.224  -0.687  -0.749  1.00  0.00     0.104 C 
HETATM   24  C3  UNL     1       9.193  -0.181  -3.486  1.00  0.00     0.024 C 
HETATM   25  C2  UNL     1      10.113  -0.682  -2.367  1.00  0.00     0.004 C 
HETATM   26  C1  UNL     1      11.521  -0.151  -2.584  1.00  0.00     0.000 C 
HETATM   27  C36 UNL     1       9.643  -0.226  -1.020  1.00  0.00     0.024 C 
HETATM   28  O1  UNL     1       5.526   0.766  -2.719  1.00  0.00    -0.267 OA
ENDBRANCH  18  20
ENDBRANCH  11  14
ENDBRANCH   9  11
ENDBRANCH   7   8
ENDBRANCH   1   7
BRANCH   6  29
HETATM   29  C19 UNL     1      -1.695  -1.965   0.294  1.00  0.00     0.233 C 
HETATM   30  O5  UNL     1      -1.708  -2.679  -0.741  1.00  0.00    -0.272 OA
HETATM   31  N3  UNL     1      -2.529  -0.827   0.339  1.00  0.00    -0.320 N 
HETATM   32  C20 UNL     1      -3.385  -0.463  -0.806  1.00  0.00     0.104 C 
HETATM   33  C33 UNL     1      -2.633   0.055   1.479  1.00  0.00     0.104 C 
HETATM   34  C21 UNL     1      -4.811  -0.648  -0.341  1.00  0.00     0.032 C 
HETATM   35  C22 UNL     1      -5.082   0.187   0.912  1.00  0.00     0.069 C 
HETATM   36  C32 UNL     1      -3.826   0.945   1.304  1.00  0.00     0.032 C 
BRANCH  35  37
HETATM   37  C23 UNL     1      -6.092   1.202   0.494  1.00  0.00     0.207 C 
HETATM   38  O6  UNL     1      -5.877   2.441   0.559  1.00  0.00    -0.288 OA
BRANCH  37  39
HETATM   39  C24 UNL     1      -7.386   0.735  -0.014  1.00  0.00     0.212 C 
HETATM   40  O7  UNL     1      -7.630  -0.490  -0.087  1.00  0.00    -0.288 OA
BRANCH  39  41
HETATM   41  C25 UNL     1      -8.422   1.702  -0.448  1.00  0.00     0.099 C 
BRANCH  41  42
HETATM   42  C26 UNL     1      -9.629   0.979  -0.916  1.00  0.00    -0.014 A 
HETATM   43  C27 UNL     1     -10.631   0.680  -0.001  1.00  0.00    -0.004 A 
HETATM   44  C28 UNL     1     -11.766   0.008  -0.399  1.00  0.00    -0.000 A 
HETATM   45  C29 UNL     1     -11.931  -0.376  -1.697  1.00  0.00    -0.000 A 
HETATM   46  C30 UNL     1     -10.934  -0.078  -2.606  1.00  0.00    -0.000 A 
HETATM   47  C31 UNL     1      -9.798   0.590  -2.225  1.00  0.00    -0.004 A 
ENDBRANCH  41  42
ENDBRANCH  39  41
ENDBRANCH  37  39
ENDBRANCH  35  37
ENDBRANCH   6  29
TORSDOF 10
