REMARK  6 active torsions:
REMARK  status: ('A' for Active; 'I' for Inactive)
REMARK    1  A    between atoms: C2_2  and  N1_5 
REMARK       I    between atoms: N1_5  and  C5_6 
REMARK    2  A    between atoms: C5_6  and  C6_8 
REMARK    3  A    between atoms: C14_16  and  C15_17 
REMARK    4  A    between atoms: C14_16  and  C23_25 
REMARK    5  A    between atoms: C15_17  and  C16_18 
REMARK    6  A    between atoms: C16_18  and  C17_19 
ROOT
HETATM    1  C6  UNL     1       1.484   0.455  -0.099  1.00  0.00     0.092 C 
HETATM    2  C7  UNL     1       1.790  -0.650  -0.788  1.00  0.00     0.007 C 
HETATM    3  C8  UNL     1       0.955  -1.662  -1.423  1.00  0.00    -0.003 A 
HETATM    4  C9  UNL     1       1.642  -2.398  -2.394  1.00  0.00    -0.000 A 
HETATM    5  C10 UNL     1       0.979  -3.383  -3.071  1.00  0.00    -0.000 A 
HETATM    6  C11 UNL     1      -0.332  -3.628  -2.790  1.00  0.00    -0.000 A 
HETATM    7  C12 UNL     1      -1.018  -2.893  -1.821  1.00  0.00    -0.004 A 
HETATM    8  C13 UNL     1      -0.360  -1.901  -1.135  1.00  0.00    -0.013 A 
HETATM    9  C14 UNL     1      -1.221  -1.219  -0.148  1.00  0.00     0.105 C 
HETATM   10  C24 UNL     1      -1.150   0.262  -0.189  1.00  0.00     0.084 C 
HETATM   11  C25 UNL     1       0.109   0.878   0.161  1.00  0.00     0.178 C 
HETATM   12  O4  UNL     1       0.014   1.964   0.800  1.00  0.00    -0.291 OA
ENDROOT
BRANCH   9  13
HETATM   13  C15 UNL     1      -2.639  -1.670  -0.352  1.00  0.00     0.019 C 
BRANCH  13  14
HETATM   14  C16 UNL     1      -3.650  -1.110   0.556  1.00  0.00     0.027 C 
BRANCH  14  15
HETATM   15  C17 UNL     1      -3.838   0.337   0.574  1.00  0.00    -0.022 A 
HETATM   16  C18 UNL     1      -3.211   1.204   1.451  1.00  0.00    -0.004 A 
HETATM   17  C19 UNL     1      -3.463   2.551   1.377  1.00  0.00    -0.000 A 
HETATM   18  C20 UNL     1      -4.325   3.111   0.460  1.00  0.00    -0.000 A 
HETATM   19  C21 UNL     1      -4.944   2.232  -0.409  1.00  0.00    -0.000 A 
HETATM   20  C22 UNL     1      -4.721   0.881  -0.369  1.00  0.00    -0.004 A 
ENDBRANCH  14  15
ENDBRANCH  13  14
ENDBRANCH   9  13
BRANCH   9  21
HETATM   21  C23 UNL     1      -0.791  -1.669   1.200  1.00  0.00     0.189 C 
HETATM   22  O2  UNL     1      -1.561  -2.261   1.998  1.00  0.00    -0.647 OA
HETATM   23  O3  UNL     1       0.504  -1.447   1.640  1.00  0.00    -0.647 OA
ENDBRANCH   9  21
BRANCH   1  24
HETATM   24  C5  UNL     1       2.560   1.265   0.411  1.00  0.00     0.278 C 
HETATM   25  N1  UNL     1       3.900   0.879   0.175  1.00  0.00    -0.238 NA
HETATM   26  O1  UNL     1       2.333   2.302   1.058  1.00  0.00    -0.265 OA
BRANCH  25  27
HETATM   27  C2  UNL     1       4.974   1.693   0.687  1.00  0.00     0.088 C 
HETATM   28  C1  UNL     1       6.308   1.058   0.295  1.00  0.00     0.025 C 
HETATM   29  C3  UNL     1       4.846   3.077   0.078  1.00  0.00     0.025 C 
HETATM   30  C4  UNL     1       4.827   1.741   2.196  1.00  0.00     0.025 C 
ENDBRANCH  25  27
ENDBRANCH   1  24
TORSDOF 6
