REMARK  7 active torsions:
REMARK  status: ('A' for Active; 'I' for Inactive)
REMARK    1  A    between atoms: C1_2  and  C2_4 
REMARK    2  A    between atoms: C7_9  and  N3_10 
REMARK    3  A    between atoms: N3_10  and  C8_11 
REMARK    4  A    between atoms: C11_15  and  N5_16 
REMARK    5  A    between atoms: C14_19  and  N6_20 
REMARK    6  A    between atoms: N6_20  and  C15_21 
REMARK    7  A    between atoms: C17_23  and  C18_24 
ROOT
HETATM    1  N5  UNL     1       0.300   2.307   0.452  1.00  0.00    -0.333 N 
HETATM    2  C12 UNL     1       0.985   3.353   1.159  1.00  0.00     0.105 C 
HETATM    3  C13 UNL     1       2.364   3.635   0.624  1.00  0.00     0.049 C 
HETATM    4  C14 UNL     1       3.048   2.272   0.457  1.00  0.00     0.109 C 
HETATM    5  C25 UNL     1       2.343   1.614  -0.730  1.00  0.00     0.049 C 
HETATM    6  C26 UNL     1       0.955   1.253  -0.285  1.00  0.00     0.105 C 
ENDROOT
BRANCH   1   7
HETATM    7  C11 UNL     1      -1.125   2.309   0.479  1.00  0.00     0.160 A 
HETATM    8  C10 UNL     1      -1.840   3.287   1.165  1.00  0.00     0.059 A 
HETATM    9  C9  UNL     1      -3.216   3.256   1.168  1.00  0.00     0.121 A 
HETATM   10  N4  UNL     1      -3.863   2.282   0.509  1.00  0.00    -0.058 NA
HETATM   11  C8  UNL     1      -3.184   1.337  -0.154  1.00  0.00     0.751 A 
HETATM   12  N9  UNL     1      -1.848   1.374  -0.152  1.00  0.00    -0.042 NA
BRANCH  11  13
HETATM   13  N3  UNL     1      -3.821   0.296  -0.859  1.00  0.00    -0.059 NA
BRANCH  13  14
HETATM   14  C7  UNL     1      -5.226   0.130  -0.948  1.00  0.00     0.102 A 
HETATM   15  C2  UNL     1      -5.741  -0.912  -1.656  1.00  0.00     0.051 A 
HETATM   16  C3  UNL     1      -7.114  -1.071  -1.740  1.00  0.00     0.004 A 
HETATM   17  C4  UNL     1      -7.913  -0.151  -1.093  1.00  0.00     0.000 A 
HETATM   18  C5  UNL     1      -7.372   0.899  -0.379  1.00  0.00     0.002 A 
HETATM   19  C6  UNL     1      -6.007   1.065  -0.289  1.00  0.00     0.020 A 
BRANCH  15  20
HETATM   20  C1  UNL     1      -4.851  -1.849  -2.317  1.00  0.00     0.174 C 
HETATM   21  N1  UNL     1      -3.582  -1.686  -2.228  1.00  0.00    -0.133 N 
HETATM   22  N2  UNL     1      -5.377  -2.931  -3.053  1.00  0.00    -0.078 NA
ENDBRANCH  15  20
ENDBRANCH  13  14
ENDBRANCH  11  13
ENDBRANCH   1   7
BRANCH   4  23
HETATM   23  N6  UNL     1       2.705   1.511   1.643  1.00  0.00    -0.255 NA
BRANCH  23  24
HETATM   24  C15 UNL     1       3.224   0.188   1.734  1.00  0.00     0.161 A 
HETATM   25  C16 UNL     1       4.018  -0.376   0.760  1.00  0.00     0.058 A 
HETATM   26  C17 UNL     1       4.519  -1.656   0.850  1.00  0.00     0.086 A 
HETATM   27  N7  UNL     1       4.207  -2.368   1.946  1.00  0.00    -0.224 NA
HETATM   28  C24 UNL     1       3.422  -1.835   2.927  1.00  0.00     0.200 A 
HETATM   29  N8  UNL     1       2.949  -0.587   2.812  1.00  0.00    -0.205 NA
BRANCH  26  30
HETATM   30  C18 UNL     1       5.360  -2.246  -0.186  1.00  0.00     0.018 A 
HETATM   31  C19 UNL     1       5.842  -3.530  -0.060  1.00  0.00     0.002 A 
HETATM   32  C20 UNL     1       6.648  -4.103  -1.048  1.00  0.00     0.000 A 
HETATM   33  C21 UNL     1       6.988  -3.401  -2.184  1.00  0.00     0.000 A 
HETATM   34  C22 UNL     1       6.502  -2.117  -2.306  1.00  0.00     0.000 A 
HETATM   35  C23 UNL     1       5.702  -1.548  -1.324  1.00  0.00     0.002 A 
ENDBRANCH  26  30
ENDBRANCH  23  24
ENDBRANCH   4  23
TORSDOF 7
