REMARK  17 active torsions:
REMARK  status: ('A' for Active; 'I' for Inactive)
REMARK    1  A    between atoms: C1_2  and  N2_3 
REMARK    2  A    between atoms: C1_2  and  O1_13 
REMARK    3  A    between atoms: N2_3  and  C2_4 
REMARK    4  A    between atoms: O1_13  and  C9_14 
REMARK    5  A    between atoms: C13_18  and  C14_19 
REMARK       I    between atoms: C14_19  and  N4_21 
REMARK    6  A    between atoms: C17_24  and  C18_25 
REMARK    7  A    between atoms: C18_25  and  C19_26 
REMARK    8  A    between atoms: C19_26  and  N5_27 
REMARK    9  A    between atoms: N5_27  and  C20_28 
REMARK   10  A    between atoms: N5_27  and  C27_35 
REMARK   11  A    between atoms: C20_28  and  C21_29 
REMARK   12  A    between atoms: C27_35  and  C28_36 
REMARK   13  A    between atoms: C33_41  and  C34_42 
REMARK   14  A    between atoms: C34_42  and  N6_43 
REMARK   15  A    between atoms: N6_43  and  C35_44 
REMARK   16  A    between atoms: C35_44  and  C36_45 
REMARK   17  A    between atoms: C36_45  and  C37_46 
ROOT
HETATM    1  C18 UNL     1       1.009  -2.921  -1.405  1.00  0.00     0.011 C 
ENDROOT
BRANCH   1   2
HETATM    2  C17 UNL     1      -0.048  -2.386  -0.742  1.00  0.00     0.040 C 
HETATM    3  N4  UNL     1      -0.943  -1.374  -0.847  1.00  0.00    -0.299 N 
HETATM    4  C14 UNL     1      -1.187  -0.058  -1.356  1.00  0.00     0.261 C 
HETATM    5  C15 UNL     1      -2.007  -2.172  -0.091  1.00  0.00     0.115 C 
HETATM    6  O2  UNL     1      -0.277   0.518  -1.989  1.00  0.00    -0.267 OA
HETATM    7  C16 UNL     1      -0.892  -3.177   0.193  1.00  0.00     0.068 C 
BRANCH   4   8
HETATM    8  C13 UNL     1      -2.457   0.578  -1.130  1.00  0.00     0.058 A 
HETATM    9  C12 UNL     1      -2.873   1.794  -1.562  1.00  0.00     0.005 A 
HETATM   10  C11 UNL     1      -4.121   2.254  -1.236  1.00  0.00     0.002 A 
HETATM   11  C10 UNL     1      -5.023   1.520  -0.458  1.00  0.00     0.025 A 
HETATM   12  C9  UNL     1      -4.614   0.292  -0.020  1.00  0.00     0.103 A 
HETATM   13  C43 UNL     1      -3.379  -0.142  -0.360  1.00  0.00     0.029 A 
BRANCH  12  14
HETATM   14  O1  UNL     1      -5.407  -0.517   0.741  1.00  0.00    -0.274 OA
BRANCH  14  15
HETATM   15  C1  UNL     1      -6.670  -0.174   1.108  1.00  0.00     0.295 C 
HETATM   16  N1  UNL     1      -6.995   1.050   1.333  1.00  0.00    -0.099 N 
BRANCH  15  17
HETATM   17  N2  UNL     1      -7.757  -1.116   1.271  1.00  0.00    -0.178 NA
BRANCH  17  18
HETATM   18  C2  UNL     1      -9.126  -0.667   1.018  1.00  0.00     0.197 A 
HETATM   19  N3  UNL     1      -9.551   0.506   0.653  1.00  0.00    -0.221 NA
HETATM   20  C3  UNL     1     -10.827   0.727   0.448  1.00  0.00     0.090 A 
HETATM   21  C4  UNL     1     -11.407   1.935   0.050  1.00  0.00     0.020 A 
HETATM   22  C8  UNL     1     -11.669  -0.340   0.636  1.00  0.00     0.050 A 
HETATM   23  C5  UNL     1     -12.735   2.059  -0.136  1.00  0.00     0.002 A 
HETATM   24  C6  UNL     1     -13.622   1.023   0.040  1.00  0.00     0.001 A 
HETATM   25  C7  UNL     1     -13.041  -0.188   0.431  1.00  0.00     0.008 A 
HETATM   26  S1  UNL     1     -10.570  -1.571   1.092  1.00  0.00    -0.047 SA
ENDBRANCH  17  18
ENDBRANCH  15  17
ENDBRANCH  14  15
ENDBRANCH  12  14
ENDBRANCH   4   8
ENDBRANCH   1   2
BRANCH   1  27
HETATM   27  C19 UNL     1       2.300  -2.224  -1.700  1.00  0.00     0.130 C 
BRANCH  27  28
HETATM   28  N5  UNL     1       2.944  -1.820  -0.489  1.00  0.00    -0.339 N 
BRANCH  28  29
HETATM   29  C20 UNL     1       3.426  -2.767   0.390  1.00  0.00     0.072 C 
BRANCH  29  30
HETATM   30  C21 UNL     1       4.375  -3.790  -0.033  1.00  0.00     0.017 A 
HETATM   31  C22 UNL     1       4.776  -4.012  -1.360  1.00  0.00     0.002 A 
HETATM   32  C23 UNL     1       5.677  -5.030  -1.658  1.00  0.00     0.000 A 
HETATM   33  C24 UNL     1       6.189  -5.831  -0.687  1.00  0.00     0.000 A 
HETATM   34  C25 UNL     1       5.813  -5.647   0.634  1.00  0.00     0.000 A 
HETATM   35  C26 UNL     1       4.922  -4.639   0.931  1.00  0.00     0.002 A 
ENDBRANCH  29  30
ENDBRANCH  28  29
BRANCH  28  36
HETATM   36  C27 UNL     1       3.476  -0.509  -0.503  1.00  0.00     0.128 C 
BRANCH  36  37
HETATM   37  C28 UNL     1       3.933  -0.116   0.842  1.00  0.00    -0.002 A 
HETATM   38  C29 UNL     1       3.781  -0.949   1.975  1.00  0.00    -0.003 A 
HETATM   39  C30 UNL     1       4.208  -0.491   3.210  1.00  0.00    -0.000 A 
HETATM   40  C31 UNL     1       4.779   0.752   3.412  1.00  0.00    -0.000 A 
HETATM   41  C32 UNL     1       4.926   1.595   2.271  1.00  0.00    -0.003 A 
HETATM   42  C33 UNL     1       4.498   1.110   1.050  1.00  0.00     0.011 A 
BRANCH  42  43
HETATM   43  C34 UNL     1       4.727   1.946  -0.212  1.00  0.00     0.317 C 
BRANCH  43  44
HETATM   44  N6  UNL     1       5.354   3.196   0.301  1.00  0.00     0.344 N 
BRANCH  44  45
HETATM   45  C35 UNL     1       6.726   3.231  -0.233  1.00  0.00     0.295 C 
BRANCH  45  46
HETATM   46  C36 UNL     1       7.526   4.415   0.201  1.00  0.00     0.065 C 
BRANCH  46  47
HETATM   47  C37 UNL     1       8.951   4.276  -0.223  1.00  0.00    -0.020 A 
HETATM   48  C38 UNL     1       9.539   4.665  -1.351  1.00  0.00    -0.004 A 
HETATM   49  C39 UNL     1      10.905   4.439  -1.606  1.00  0.00    -0.000 A 
HETATM   50  C40 UNL     1      11.651   3.777  -0.605  1.00  0.00    -0.000 A 
HETATM   51  C41 UNL     1      11.069   3.366   0.564  1.00  0.00    -0.000 A 
HETATM   52  C42 UNL     1       9.719   3.599   0.787  1.00  0.00    -0.004 A 
ENDBRANCH  46  47
ENDBRANCH  45  46
ENDBRANCH  44  45
ENDBRANCH  43  44
ENDBRANCH  42  43
ENDBRANCH  36  37
ENDBRANCH  28  36
ENDBRANCH  27  28
ENDBRANCH   1  27
TORSDOF 17
