REMARK  2 active torsions:
REMARK  status: ('A' for Active; 'I' for Inactive)
REMARK       I    between atoms: C1_2  and  N2_4 
REMARK    1  A    between atoms: C4_8  and  C5_9 
REMARK    2  A    between atoms: C5_9  and  C6_10 
ROOT
HETATM    1  N1  UNL     1      -4.505   0.332  -0.475  1.00  0.00    -0.039 NA
HETATM    2  C1  UNL     1      -3.481   1.157   0.048  1.00  0.00     0.341 C 
HETATM    3  O1  UNL     1      -3.812   2.276   0.516  1.00  0.00    -0.250 OA
HETATM    4  N2  UNL     1      -2.116   0.728   0.040  1.00  0.00    -0.244 N 
HETATM    5  C2  UNL     1      -1.044   1.397   0.498  1.00  0.00     0.186 A 
HETATM    6  N3  UNL     1       0.077   0.651   0.311  1.00  0.00    -0.223 NA
HETATM    7  C3  UNL     1      -0.274  -0.489  -0.262  1.00  0.00     0.113 A 
HETATM    8  C4  UNL     1       0.481  -1.565  -0.652  1.00  0.00     0.083 A 
HETATM    9  N4  UNL     1      -0.146  -2.608  -1.219  1.00  0.00    -0.246 NA
HETATM   10  C12 UNL     1      -1.497  -2.608  -1.407  1.00  0.00     0.100 A 
HETATM   11  C13 UNL     1      -2.276  -1.531  -1.021  1.00  0.00     0.040 A 
HETATM   12  C14 UNL     1      -1.650  -0.441  -0.432  1.00  0.00     0.090 A 
ENDROOT
BRANCH   8  13
HETATM   13  C5  UNL     1       1.945  -1.654  -0.489  1.00  0.00     0.074 C 
BRANCH  13  14
HETATM   14  C6  UNL     1       2.510  -0.436   0.150  1.00  0.00    -0.016 A 
HETATM   15  C7  UNL     1       2.936   0.648  -0.589  1.00  0.00    -0.004 A 
HETATM   16  C8  UNL     1       3.464   1.789  -0.021  1.00  0.00    -0.000 A 
HETATM   17  C9  UNL     1       3.583   1.875   1.356  1.00  0.00    -0.000 A 
HETATM   18  C10 UNL     1       3.166   0.808   2.116  1.00  0.00    -0.000 A 
HETATM   19  C11 UNL     1       2.639  -0.329   1.533  1.00  0.00    -0.004 A 
ENDBRANCH  13  14
ENDBRANCH   8  13
TORSDOF 2
