REMARK  4 active torsions:
REMARK  status: ('A' for Active; 'I' for Inactive)
REMARK    1  A    between atoms: C1_2  and  C2_3 
REMARK    2  A    between atoms: C1_2  and  C13_16 
REMARK    3  A    between atoms: C2_3  and  C3_4 
REMARK    4  A    between atoms: C3_4  and  C4_6 
ROOT
HETATM    1  C3  UNL     1       0.013  -0.540   0.393  1.00  0.00     0.177 C 
HETATM    2  O1  UNL     1       0.934  -1.353   0.515  1.00  0.00    -0.291 OA
ENDROOT
BRANCH   1   3
HETATM    3  C2  UNL     1       0.232   0.932   0.289  1.00  0.00     0.113 C 
BRANCH   3   4
HETATM    4  C1  UNL     1       1.349   1.145  -0.723  1.00  0.00     0.334 C 
HETATM    5  N1  UNL     1       1.575   2.587  -0.900  1.00  0.00     0.621 N 
BRANCH   4   6
HETATM    6  C13 UNL     1       2.631   0.535  -0.254  1.00  0.00     0.042 A 
HETATM    7  C14 UNL     1       2.987   0.260   1.012  1.00  0.00     0.000 A 
HETATM    8  C15 UNL     1       4.222  -0.245   1.365  1.00  0.00    -0.000 A 
HETATM    9  C16 UNL     1       5.142  -0.476   0.337  1.00  0.00     0.002 A 
HETATM   10  C17 UNL     1       4.801  -0.201  -0.959  1.00  0.00     0.029 A 
HETATM   11  C18 UNL     1       3.565   0.295  -1.258  1.00  0.00     0.138 A 
HETATM   12  F1  UNL     1       3.244   0.543  -2.569  1.00  0.00    -0.204 F 
ENDBRANCH   4   6
ENDBRANCH   3   4
ENDBRANCH   1   3
BRANCH   1  13
HETATM   13  C4  UNL     1      -1.379  -1.034   0.335  1.00  0.00     0.054 A 
HETATM   14  C5  UNL     1      -1.666  -2.359   0.261  1.00  0.00     0.102 A 
HETATM   15  N2  UNL     1      -2.932  -2.814   0.157  1.00  0.00    -0.242 NA
HETATM   16  C6  UNL     1      -3.926  -1.934   0.127  1.00  0.00     0.099 A 
HETATM   17  C7  UNL     1      -3.703  -0.572   0.197  1.00  0.00     0.019 A 
HETATM   18  C8  UNL     1      -4.760   0.329   0.159  1.00  0.00     0.002 A 
HETATM   19  C12 UNL     1      -2.412  -0.130   0.303  1.00  0.00     0.006 A 
HETATM   20  C9  UNL     1      -4.509   1.687   0.231  1.00  0.00     0.000 A 
HETATM   21  C10 UNL     1      -3.227   2.113   0.340  1.00  0.00     0.000 A 
HETATM   22  C11 UNL     1      -2.183   1.231   0.376  1.00  0.00     0.000 A 
ENDBRANCH   1  13
TORSDOF 4
