REMARK  15 active torsions:
REMARK  status: ('A' for Active; 'I' for Inactive)
REMARK    1  A    between atoms: C4_5  and  C5_6 
REMARK    2  A    between atoms: C6_8  and  O2_9 
REMARK    3  A    between atoms: O2_9  and  C7_10 
REMARK    4  A    between atoms: C7_10  and  C8_12 
REMARK    5  A    between atoms: C8_12  and  C9_13 
REMARK    6  A    between atoms: C8_12  and  C24_32 
REMARK    7  A    between atoms: C9_13  and  C10_14 
REMARK    8  A    between atoms: C10_14  and  C11_15 
REMARK       I    between atoms: C11_15  and  N2_17 
REMARK    9  A    between atoms: C13_19  and  C14_20 
REMARK   10  A    between atoms: C14_20  and  C15_21 
REMARK   11  A    between atoms: C24_32  and  C25_34 
REMARK   12  A    between atoms: C25_34  and  O7_35 
REMARK   13  A    between atoms: O7_35  and  C26_36 
REMARK   14  A    between atoms: C31_41  and  C32_42 
REMARK       I    between atoms: C32_42  and  N4_44 
REMARK   15  A    between atoms: N4_44  and  C33_45 
ROOT
HETATM    1  C8  UNL     1       0.306   0.889  -2.332  1.00  0.00     0.147 C 
ENDROOT
BRANCH   1   2
HETATM    2  C7  UNL     1       1.079   2.052  -2.803  1.00  0.00     0.283 C 
HETATM    3  O3  UNL     1       2.212   2.222  -2.232  1.00  0.00    -0.263 OA
BRANCH   2   4
HETATM    4  O2  UNL     1       0.665   2.926  -3.791  1.00  0.00    -0.272 OA
BRANCH   4   5
HETATM    5  C6  UNL     1       1.449   3.979  -4.192  1.00  0.00     0.153 C 
HETATM    6  C5  UNL     1       1.696   5.005  -3.204  1.00  0.00     0.157 C 
HETATM    7  O1  UNL     1       2.631   5.890  -3.437  1.00  0.00    -0.188 OA
BRANCH   6   8
HETATM    8  C4  UNL     1       0.964   5.126  -1.954  1.00  0.00     0.047 A 
HETATM    9  C3  UNL     1      -0.085   4.337  -1.581  1.00  0.00     0.006 A 
HETATM   10  C2  UNL     1      -0.774   4.455  -0.397  1.00  0.00     0.034 A 
HETATM   11  C1  UNL     1      -0.378   5.442   0.480  1.00  0.00     0.151 A 
HETATM   12  N1  UNL     1      -1.066   5.600   1.720  1.00  0.00    -0.080 NA
HETATM   13  N5  UNL     1       0.652   6.229   0.131  1.00  0.00    -0.230 NA
HETATM   14  C39 UNL     1       1.323   6.113  -1.023  1.00  0.00     0.102 A 
ENDBRANCH   6   8
ENDBRANCH   4   5
ENDBRANCH   2   4
ENDBRANCH   1   2
BRANCH   1  15
HETATM   15  C9  UNL     1      -1.051   1.181  -1.823  1.00  0.00     0.027 C 
BRANCH  15  16
HETATM   16  C10 UNL     1      -1.795  -0.024  -1.358  1.00  0.00     0.089 C 
BRANCH  16  17
HETATM   17  C11 UNL     1      -3.158   0.318  -0.853  1.00  0.00     0.241 C 
HETATM   18  O4  UNL     1      -3.484   1.529  -0.878  1.00  0.00    -0.272 OA
HETATM   19  N2  UNL     1      -4.049  -0.674  -0.366  1.00  0.00    -0.251 N 
HETATM   20  C12 UNL     1      -5.321  -0.173   0.081  1.00  0.00     0.114 C 
HETATM   21  C23 UNL     1      -3.594  -2.017  -0.376  1.00  0.00     0.348 C 
HETATM   22  C13 UNL     1      -6.340  -1.275   0.265  1.00  0.00     0.029 C 
HETATM   23  C21 UNL     1      -6.441  -2.041  -1.032  1.00  0.00     0.029 C 
HETATM   24  C22 UNL     1      -5.750  -3.388  -0.933  1.00  0.00     0.131 C 
HETATM   25  N3  UNL     1      -4.384  -3.182  -0.446  1.00  0.00    -0.219 NA
HETATM   26  O5  UNL     1      -2.337  -2.142  -0.315  1.00  0.00    -0.245 OA
BRANCH  22  27
HETATM   27  C14 UNL     1      -5.925  -2.229   1.348  1.00  0.00     0.028 C 
BRANCH  27  28
HETATM   28  C15 UNL     1      -5.764  -1.588   2.666  1.00  0.00    -0.022 A 
HETATM   29  C16 UNL     1      -4.557  -1.065   3.057  1.00  0.00    -0.004 A 
HETATM   30  C17 UNL     1      -4.411  -0.459   4.306  1.00  0.00    -0.000 A 
HETATM   31  C18 UNL     1      -5.503  -0.387   5.161  1.00  0.00    -0.000 A 
HETATM   32  C19 UNL     1      -6.718  -0.915   4.765  1.00  0.00    -0.000 A 
HETATM   33  C20 UNL     1      -6.838  -1.511   3.521  1.00  0.00    -0.004 A 
ENDBRANCH  27  28
ENDBRANCH  22  27
ENDBRANCH  16  17
ENDBRANCH  15  16
ENDBRANCH   1  15
BRANCH   1  34
HETATM   34  C24 UNL     1       1.093  -0.018  -1.482  1.00  0.00     0.190 C 
HETATM   35  O6  UNL     1       0.712  -0.221  -0.327  1.00  0.00    -0.293 OA
BRANCH  34  36
HETATM   36  C25 UNL     1       2.334  -0.704  -1.954  1.00  0.00     0.213 C 
BRANCH  36  37
HETATM   37  O7  UNL     1       2.895  -1.520  -0.950  1.00  0.00    -0.323 OA
BRANCH  37  38
HETATM   38  C26 UNL     1       2.255  -2.585  -0.359  1.00  0.00     0.099 A 
HETATM   39  C27 UNL     1       0.962  -2.933  -0.736  1.00  0.00     0.024 A 
HETATM   40  C28 UNL     1       0.326  -3.994  -0.147  1.00  0.00     0.002 A 
HETATM   41  C29 UNL     1       0.967  -4.715   0.818  1.00  0.00     0.000 A 
HETATM   42  C30 UNL     1       2.249  -4.358   1.181  1.00  0.00     0.007 A 
HETATM   43  C31 UNL     1       2.919  -3.301   0.612  1.00  0.00     0.080 A 
BRANCH  43  44
HETATM   44  C32 UNL     1       4.269  -2.992   1.052  1.00  0.00     0.281 C 
HETATM   45  O8  UNL     1       4.800  -3.697   1.944  1.00  0.00    -0.265 OA
HETATM   46  N4  UNL     1       5.035  -1.926   0.525  1.00  0.00    -0.208 NA
BRANCH  46  47
HETATM   47  C33 UNL     1       6.356  -1.604   0.937  1.00  0.00     0.085 A 
HETATM   48  C34 UNL     1       6.970  -0.531   0.325  1.00  0.00     0.019 A 
HETATM   49  C35 UNL     1       8.254  -0.129   0.648  1.00  0.00     0.002 A 
HETATM   50  C36 UNL     1       8.951  -0.820   1.615  1.00  0.00     0.000 A 
HETATM   51  C37 UNL     1       8.346  -1.890   2.229  1.00  0.00     0.002 A 
HETATM   52  C38 UNL     1       7.052  -2.287   1.896  1.00  0.00     0.019 A 
ENDBRANCH  46  47
ENDBRANCH  43  44
ENDBRANCH  37  38
ENDBRANCH  36  37
ENDBRANCH  34  36
ENDBRANCH   1  34
TORSDOF 15
