REMARK  11 active torsions:
REMARK  status: ('A' for Active; 'I' for Inactive)
REMARK       I    between atoms: C1_2  and  N1_3 
REMARK    1  A    between atoms: C1_2  and  C10_13 
REMARK    2  A    between atoms: N1_3  and  C2_4 
REMARK    3  A    between atoms: C2_4  and  C3_5 
REMARK    4  A    between atoms: C3_5  and  C4_6 
REMARK    5  A    between atoms: C11_14  and  C12_15 
REMARK    6  A    between atoms: C17_20  and  C18_21 
REMARK    7  A    between atoms: C24_27  and  C25_28 
REMARK    8  A    between atoms: C25_28  and  C26_29 
REMARK    9  A    between atoms: C25_28  and  C32_35 
REMARK   10  A    between atoms: C38_41  and  C39_42 
REMARK       I    between atoms: C39_42  and  N2_44 
REMARK   11  A    between atoms: N2_44  and  C40_45 
ROOT
HETATM    1  C10 UNL     1       1.358  -0.147   0.326  1.00  0.00     0.115 C 
HETATM    2  C11 UNL     1       0.118  -0.619   0.541  1.00  0.00     0.006 C 
HETATM    3  C24 UNL     1      -1.197  -0.051   0.846  1.00  0.00    -0.009 C 
HETATM    4  C38 UNL     1      -1.491   1.341   0.767  1.00  0.00     0.056 C 
HETATM    5  C46 UNL     1      -0.877   2.267   1.722  1.00  0.00     0.022 A 
HETATM    6  C47 UNL     1      -1.826   2.663   2.595  1.00  0.00     0.002 A 
HETATM    7  C48 UNL     1      -1.434   3.576   3.580  1.00  0.00     0.000 A 
HETATM    8  C49 UNL     1      -0.157   4.057   3.671  1.00  0.00     0.002 A 
HETATM    9  C50 UNL     1       0.796   3.642   2.772  1.00  0.00     0.019 A 
HETATM   10  C51 UNL     1       0.409   2.748   1.810  1.00  0.00     0.085 A 
HETATM   11  N3  UNL     1       1.579   2.454   0.992  1.00  0.00    -0.208 NA
HETATM   12  C52 UNL     1       1.862   1.258   0.225  1.00  0.00     0.284 C 
HETATM   13  O4  UNL     1       2.677   1.406  -0.698  1.00  0.00    -0.265 OA
ENDROOT
BRANCH   3  14
HETATM   14  C25 UNL     1      -2.163  -0.912   1.550  1.00  0.00     0.067 C 
BRANCH  14  15
HETATM   15  C26 UNL     1      -3.388  -0.050   1.847  1.00  0.00    -0.014 A 
HETATM   16  C27 UNL     1      -3.974   0.725   0.900  1.00  0.00    -0.004 A 
HETATM   17  C28 UNL     1      -5.073   1.494   1.204  1.00  0.00    -0.000 A 
HETATM   18  C29 UNL     1      -5.567   1.460   2.486  1.00  0.00    -0.000 A 
HETATM   19  C30 UNL     1      -4.976   0.672   3.458  1.00  0.00    -0.000 A 
HETATM   20  C31 UNL     1      -3.872  -0.088   3.121  1.00  0.00    -0.004 A 
ENDBRANCH  14  15
BRANCH  14  21
HETATM   21  C32 UNL     1      -2.823  -1.969   0.676  1.00  0.00    -0.014 A 
HETATM   22  C33 UNL     1      -3.200  -1.722  -0.593  1.00  0.00    -0.004 A 
HETATM   23  C34 UNL     1      -3.826  -2.616  -1.419  1.00  0.00    -0.000 A 
HETATM   24  C35 UNL     1      -4.086  -3.884  -0.880  1.00  0.00    -0.000 A 
HETATM   25  C36 UNL     1      -3.721  -4.177   0.401  1.00  0.00    -0.000 A 
HETATM   26  C37 UNL     1      -3.086  -3.228   1.196  1.00  0.00    -0.004 A 
ENDBRANCH  14  21
ENDBRANCH   3  14
BRANCH   2  27
HETATM   27  C12 UNL     1       0.097  -2.059   0.567  1.00  0.00     0.000 A 
HETATM   28  C13 UNL     1       0.125  -2.616   1.857  1.00  0.00    -0.000 A 
HETATM   29  C14 UNL     1       0.034  -3.975   2.023  1.00  0.00    -0.000 A 
HETATM   30  C15 UNL     1      -0.088  -4.823   0.926  1.00  0.00    -0.000 A 
HETATM   31  C16 UNL     1      -0.110  -4.243  -0.319  1.00  0.00    -0.000 A 
HETATM   32  C17 UNL     1      -0.018  -2.859  -0.524  1.00  0.00    -0.000 A 
BRANCH  32  33
HETATM   33  C18 UNL     1       0.029  -2.339  -1.868  1.00  0.00    -0.000 A 
HETATM   34  C19 UNL     1       0.741  -3.170  -2.769  1.00  0.00    -0.000 A 
HETATM   35  C20 UNL     1       0.913  -2.837  -4.088  1.00  0.00     0.000 A 
HETATM   36  C21 UNL     1       0.369  -1.655  -4.537  1.00  0.00     0.000 A 
HETATM   37  C22 UNL     1      -0.327  -0.834  -3.673  1.00  0.00     0.000 A 
HETATM   38  C23 UNL     1      -0.483  -1.193  -2.357  1.00  0.00    -0.000 A 
ENDBRANCH  32  33
ENDBRANCH   2  27
BRANCH   4  39
HETATM   39  C39 UNL     1      -1.731   1.982  -0.539  1.00  0.00     0.279 C 
HETATM   40  O3  UNL     1      -1.430   3.225  -0.624  1.00  0.00    -0.265 OA
HETATM   41  N2  UNL     1      -2.249   1.412  -1.709  1.00  0.00    -0.208 NA
BRANCH  41  42
HETATM   42  C40 UNL     1      -2.452   2.110  -2.930  1.00  0.00     0.085 A 
HETATM   43  C41 UNL     1      -2.900   1.388  -4.013  1.00  0.00     0.019 A 
HETATM   44  C42 UNL     1      -3.129   2.001  -5.252  1.00  0.00     0.002 A 
HETATM   45  C43 UNL     1      -2.903   3.349  -5.393  1.00  0.00     0.000 A 
HETATM   46  C44 UNL     1      -2.455   4.081  -4.318  1.00  0.00     0.002 A 
HETATM   47  C45 UNL     1      -2.233   3.450  -3.091  1.00  0.00     0.019 A 
ENDBRANCH  41  42
ENDBRANCH   4  39
BRANCH   1  48
HETATM   48  C1  UNL     1       2.415  -1.079   0.176  1.00  0.00     0.280 C 
HETATM   49  O1  UNL     1       2.337  -2.306   0.242  1.00  0.00    -0.265 OA
HETATM   50  N1  UNL     1       3.760  -0.594  -0.080  1.00  0.00    -0.234 NA
BRANCH  50  51
HETATM   51  C2  UNL     1       4.813  -1.529  -0.225  1.00  0.00     0.134 C 
BRANCH  51  52
HETATM   52  C3  UNL     1       6.133  -0.952  -0.460  1.00  0.00     0.055 C 
BRANCH  52  53
HETATM   53  C4  UNL     1       6.654  -0.074   0.596  1.00  0.00     0.005 A 
HETATM   54  C5  UNL     1       7.487  -0.648   1.542  1.00  0.00    -0.002 A 
HETATM   55  C6  UNL     1       8.010   0.031   2.585  1.00  0.00    -0.000 A 
HETATM   56  C7  UNL     1       7.716   1.360   2.738  1.00  0.00     0.002 A 
HETATM   57  C8  UNL     1       6.893   1.965   1.820  1.00  0.00     0.027 A 
HETATM   58  C9  UNL     1       6.370   1.251   0.759  1.00  0.00     0.127 A 
HETATM   59  O2  UNL     1       5.549   1.876  -0.157  1.00  0.00    -0.191 OA
ENDBRANCH  52  53
ENDBRANCH  51  52
ENDBRANCH  50  51
ENDBRANCH   1  48
TORSDOF 11
