REMARK  12 active torsions:
REMARK  status: ('A' for Active; 'I' for Inactive)
REMARK    1  A    between atoms: C1_2  and  C2_3 
REMARK       I    between atoms: C1_2  and  N4_32 
REMARK    2  A    between atoms: C2_3  and  O2_4 
REMARK    3  A    between atoms: O2_4  and  C3_5 
REMARK    4  A    between atoms: C3_5  and  C4_7 
REMARK    5  A    between atoms: C4_7  and  C5_8 
REMARK    6  A    between atoms: C5_8  and  N1_9 
REMARK    7  A    between atoms: C6_10  and  C7_11 
REMARK    8  A    between atoms: C6_10  and  N2_17 
REMARK    9  A    between atoms: C16_21  and  C17_22 
REMARK       I    between atoms: C17_22  and  N3_24 
REMARK   10  A    between atoms: N3_24  and  C18_25 
REMARK   11  A    between atoms: C18_25  and  C19_26 
REMARK   12  A    between atoms: N4_32  and  N5_33 
ROOT
HETATM    1  N1  UNL     1       0.867   0.476  -0.791  1.00  0.00    -0.254 NA
HETATM    2  C6  UNL     1       0.108  -0.544  -0.832  1.00  0.00     0.136 C 
ENDROOT
BRANCH   2   3
HETATM    3  C7  UNL     1       0.106  -1.557  -1.851  1.00  0.00     0.034 A 
HETATM    4  C8  UNL     1       0.777  -1.339  -3.027  1.00  0.00     0.003 A 
HETATM    5  C9  UNL     1       0.775  -2.335  -4.002  1.00  0.00     0.000 A 
HETATM    6  C10 UNL     1       0.122  -3.532  -3.828  1.00  0.00     0.000 A 
HETATM    7  C11 UNL     1      -0.555  -3.744  -2.638  1.00  0.00     0.000 A 
HETATM    8  C12 UNL     1      -0.548  -2.745  -1.668  1.00  0.00     0.003 A 
ENDBRANCH   2   3
BRANCH   2   9
HETATM    9  N2  UNL     1      -0.850  -0.679   0.244  1.00  0.00    -0.328 N 
HETATM   10  C13 UNL     1      -1.394  -1.901   0.790  1.00  0.00     0.103 C 
HETATM   11  C14 UNL     1      -1.355  -1.593   2.284  1.00  0.00     0.027 C 
HETATM   12  C15 UNL     1      -1.639  -0.086   2.337  1.00  0.00     0.034 C 
HETATM   13  C16 UNL     1      -1.443   0.423   0.959  1.00  0.00     0.164 C 
BRANCH  13  14
HETATM   14  C17 UNL     1      -2.637   0.874   0.249  1.00  0.00     0.272 C 
HETATM   15  O4  UNL     1      -3.023   0.286  -0.803  1.00  0.00    -0.269 OA
HETATM   16  N3  UNL     1      -3.439   1.984   0.675  1.00  0.00    -0.232 NA
BRANCH  16  17
HETATM   17  C18 UNL     1      -4.614   2.399  -0.067  1.00  0.00     0.155 C 
BRANCH  17  18
HETATM   18  C19 UNL     1      -5.700   1.432   0.227  1.00  0.00     0.002 A 
HETATM   19  C20 UNL     1      -5.909   0.272  -0.472  1.00  0.00    -0.002 A 
HETATM   20  C21 UNL     1      -6.945  -0.564  -0.128  1.00  0.00    -0.000 A 
HETATM   21  C22 UNL     1      -7.777  -0.222   0.932  1.00  0.00    -0.000 A 
HETATM   22  C23 UNL     1      -7.591   0.938   1.652  1.00  0.00    -0.000 A 
HETATM   23  C24 UNL     1      -6.543   1.751   1.279  1.00  0.00    -0.002 A 
ENDBRANCH  17  18
ENDBRANCH  16  17
ENDBRANCH  13  14
ENDBRANCH   2   9
BRANCH   1  24
HETATM   24  C5  UNL     1       1.870   0.839  -1.732  1.00  0.00     0.138 C 
BRANCH  24  25
HETATM   25  C4  UNL     1       3.005  -0.130  -1.676  1.00  0.00     0.122 C 
BRANCH  25  26
HETATM   26  C3  UNL     1       3.617  -0.155  -0.309  1.00  0.00     0.274 C 
HETATM   27  O3  UNL     1       3.154   0.570   0.619  1.00  0.00    -0.264 OA
BRANCH  26  28
HETATM   28  O2  UNL     1       4.693  -0.954   0.001  1.00  0.00    -0.291 OA
BRANCH  28  29
HETATM   29  C2  UNL     1       5.337  -1.060   1.231  1.00  0.00     0.243 C 
BRANCH  29  30
HETATM   30  C1  UNL     1       5.920   0.184   1.751  1.00  0.00     0.308 C 
HETATM   31  O1  UNL     1       6.552   0.274   2.824  1.00  0.00    -0.266 OA
HETATM   32  N4  UNL     1       5.770   1.401   0.997  1.00  0.00    -0.067 NA
BRANCH  32  33
HETATM   33  N5  UNL     1       6.293   2.617   1.424  1.00  0.00    -0.011 N 
HETATM   34  O5  UNL     1       5.995   3.736   0.686  1.00  0.00    -0.515 OA
HETATM   35  O6  UNL     1       7.006   2.686   2.442  1.00  0.00    -0.515 OA
ENDBRANCH  32  33
ENDBRANCH  29  30
ENDBRANCH  28  29
ENDBRANCH  26  28
ENDBRANCH  25  26
ENDBRANCH  24  25
ENDBRANCH   1  24
TORSDOF 12
