REMARK  7 active torsions:
REMARK  status: ('A' for Active; 'I' for Inactive)
REMARK       I    between atoms: C1_2  and  N1_3 
REMARK       I    between atoms: C1_2  and  N2_12 
REMARK    1  A    between atoms: N1_3  and  C2_4 
REMARK    2  A    between atoms: C2_4  and  C3_5 
REMARK    3  A    between atoms: N2_12  and  C9_13 
REMARK    4  A    between atoms: C14_18  and  C15_19 
REMARK    5  A    between atoms: C16_20  and  C17_21 
REMARK    6  A    between atoms: N3_25  and  C20_26 
REMARK    7  A    between atoms: C20_26  and  C21_27 
ROOT
HETATM    1  C9  UNL     1      -0.108  -2.076  -0.041  1.00  0.00     0.084 A 
HETATM    2  C10 UNL     1       0.863  -2.881  -0.599  1.00  0.00     0.019 A 
HETATM    3  C11 UNL     1       0.532  -3.969  -1.392  1.00  0.00     0.002 A 
HETATM    4  C12 UNL     1      -0.804  -4.228  -1.609  1.00  0.00    -0.000 A 
HETATM    5  C13 UNL     1      -1.744  -3.420  -1.049  1.00  0.00    -0.001 A 
HETATM    6  C14 UNL     1      -1.448  -2.323  -0.250  1.00  0.00     0.026 A 
ENDROOT
BRANCH   6   7
HETATM    7  C15 UNL     1      -2.448  -1.446   0.360  1.00  0.00     0.246 C 
HETATM    8  C16 UNL     1      -3.858  -1.807   0.041  1.00  0.00     0.071 C 
HETATM    9  C18 UNL     1      -4.497  -0.444  -0.264  1.00  0.00     0.040 C 
HETATM   10  C19 UNL     1      -3.305   0.249  -0.938  1.00  0.00     0.251 C 
HETATM   11  N3  UNL     1      -2.263  -0.042   0.062  1.00  0.00     0.144 N 
BRANCH   8  12
HETATM   12  C17 UNL     1      -3.960  -2.588  -1.276  1.00  0.00     0.185 C 
HETATM   13  O3  UNL     1      -5.257  -2.919  -1.570  1.00  0.00    -0.221 OA
ENDBRANCH   8  12
BRANCH  11  14
HETATM   14  C20 UNL     1      -2.634   0.781   1.225  1.00  0.00     0.277 C 
BRANCH  14  15
HETATM   15  C21 UNL     1      -2.633   2.211   0.787  1.00  0.00     0.011 A 
HETATM   16  C22 UNL     1      -1.496   2.985   0.887  1.00  0.00    -0.002 A 
HETATM   17  C23 UNL     1      -1.501   4.304   0.481  1.00  0.00    -0.000 A 
HETATM   18  C24 UNL     1      -2.644   4.904  -0.043  1.00  0.00    -0.000 A 
HETATM   19  C25 UNL     1      -3.768   4.132  -0.140  1.00  0.00    -0.000 A 
HETATM   20  C26 UNL     1      -3.760   2.814   0.266  1.00  0.00    -0.002 A 
ENDBRANCH  14  15
ENDBRANCH  11  14
ENDBRANCH   6   7
BRANCH   1  21
HETATM   21  N2  UNL     1       0.322  -0.979   0.760  1.00  0.00    -0.192 NA
HETATM   22  C1  UNL     1       1.682  -0.700   0.991  1.00  0.00     0.365 C 
HETATM   23  O1  UNL     1       2.561  -1.455   0.467  1.00  0.00    -0.243 OA
HETATM   24  N1  UNL     1       2.166   0.379   1.779  1.00  0.00    -0.212 NA
BRANCH  24  25
HETATM   25  C2  UNL     1       3.571   0.629   1.990  1.00  0.00     0.159 C 
BRANCH  25  26
HETATM   26  C3  UNL     1       4.289   0.878   0.713  1.00  0.00     0.028 A 
HETATM   27  C4  UNL     1       3.673   0.870  -0.521  1.00  0.00    -0.000 A 
HETATM   28  C5  UNL     1       4.382   1.109  -1.696  1.00  0.00    -0.000 A 
HETATM   29  C6  UNL     1       5.738   1.364  -1.649  1.00  0.00     0.002 A 
HETATM   30  C7  UNL     1       6.348   1.370  -0.408  1.00  0.00     0.027 A 
HETATM   31  C8  UNL     1       5.643   1.133   0.754  1.00  0.00     0.129 A 
HETATM   32  O2  UNL     1       6.359   1.163   1.955  1.00  0.00    -0.190 OA
ENDBRANCH  25  26
ENDBRANCH  24  25
ENDBRANCH   1  21
TORSDOF 7
