REMARK  10 active torsions:
REMARK  status: ('A' for Active; 'I' for Inactive)
REMARK    1  A    between atoms: C1_2  and  C2_3 
REMARK       I    between atoms: C1_2  and  N3_23 
REMARK    2  A    between atoms: C2_3  and  O2_4 
REMARK    3  A    between atoms: O2_4  and  C3_5 
REMARK    4  A    between atoms: C8_10  and  N1_11 
REMARK    5  A    between atoms: N1_11  and  C9_12 
REMARK    6  A    between atoms: C9_12  and  N2_14 
REMARK    7  A    between atoms: N2_14  and  C10_15 
REMARK    8  A    between atoms: C10_15  and  C11_16 
REMARK    9  A    between atoms: N3_23  and  C18_24 
REMARK   10  A    between atoms: C18_24  and  C19_25 
ROOT
HETATM    1  C3  UNL     1       0.351  -2.523   1.080  1.00  0.00     0.118 A 
HETATM    2  C4  UNL     1       1.131  -3.614   1.352  1.00  0.00     0.026 A 
HETATM    3  C5  UNL     1       0.674  -4.920   1.232  1.00  0.00     0.002 A 
HETATM    4  C6  UNL     1      -0.630  -5.134   0.813  1.00  0.00     0.002 A 
HETATM    5  C7  UNL     1      -1.447  -4.040   0.531  1.00  0.00     0.021 A 
HETATM    6  C8  UNL     1      -0.976  -2.742   0.658  1.00  0.00     0.106 A 
ENDROOT
BRANCH   1   7
HETATM    7  O2  UNL     1       0.745  -1.220   1.214  1.00  0.00    -0.299 OA
BRANCH   7   8
HETATM    8  C2  UNL     1       1.855  -0.669   1.557  1.00  0.00     0.185 C 
BRANCH   8   9
HETATM    9  C1  UNL     1       3.054  -0.551   0.739  1.00  0.00     0.300 C 
HETATM   10  O1  UNL     1       4.196  -0.926   1.184  1.00  0.00    -0.263 OA
HETATM   11  N3  UNL     1       2.962   0.006  -0.523  1.00  0.00    -0.228 NA
BRANCH  11  12
HETATM   12  C18 UNL     1       3.982   0.330  -1.481  1.00  0.00     0.156 C 
BRANCH  12  13
HETATM   13  C19 UNL     1       5.015   1.174  -0.751  1.00  0.00     0.013 A 
HETATM   14  C20 UNL     1       5.831   0.664   0.218  1.00  0.00    -0.002 A 
HETATM   15  C21 UNL     1       6.799   1.391   0.827  1.00  0.00    -0.000 A 
HETATM   16  C22 UNL     1       7.034   2.744   0.516  1.00  0.00     0.001 A 
HETATM   17  C23 UNL     1       6.198   3.246  -0.468  1.00  0.00     0.011 A 
HETATM   18  C24 UNL     1       5.213   2.517  -1.107  1.00  0.00     0.056 A 
HETATM   19 CL1  UNL     1       4.152   3.158  -2.319  1.00  0.00    -0.083 Cl
ENDBRANCH  12  13
ENDBRANCH  11  12
ENDBRANCH   8   9
ENDBRANCH   7   8
ENDBRANCH   1   7
BRANCH   6  20
HETATM   20  N1  UNL     1      -1.712  -1.651   0.154  1.00  0.00    -0.216 NA
BRANCH  20  21
HETATM   21  C9  UNL     1      -2.974  -1.280   0.564  1.00  0.00     0.216 C 
HETATM   22  S1  UNL     1      -3.664  -1.984   1.913  1.00  0.00    -0.037 SA
BRANCH  21  23
HETATM   23  N2  UNL     1      -3.741  -0.276  -0.044  1.00  0.00    -0.244 NA
BRANCH  23  24
HETATM   24  C10 UNL     1      -3.392   0.497  -1.204  1.00  0.00     0.128 C 
BRANCH  24  25
HETATM   25  C11 UNL     1      -4.573   1.469  -1.453  1.00  0.00     0.025 C 
HETATM   26  C12 UNL     1      -4.546   2.363  -0.184  1.00  0.00     0.002 C 
HETATM   27  C13 UNL     1      -5.081   3.733  -0.561  1.00  0.00     0.000 C 
HETATM   28  C14 UNL     1      -6.615   3.668  -0.556  1.00  0.00     0.000 C 
HETATM   29  C15 UNL     1      -6.967   2.678  -1.668  1.00  0.00     0.000 C 
HETATM   30  C16 UNL     1      -7.071   1.321  -1.038  1.00  0.00     0.000 C 
HETATM   31  C17 UNL     1      -5.802   0.572  -1.198  1.00  0.00     0.002 C 
ENDBRANCH  24  25
ENDBRANCH  23  24
ENDBRANCH  21  23
ENDBRANCH  20  21
ENDBRANCH   6  20
TORSDOF 10
