REMARK  10 active torsions:
REMARK  status: ('A' for Active; 'I' for Inactive)
REMARK       I    between atoms: C1_2  and  N1_3 
REMARK    1  A    between atoms: C1_2  and  C11_19 
REMARK    2  A    between atoms: N1_3  and  C2_4 
REMARK    3  A    between atoms: C2_4  and  N2_6 
REMARK    4  A    between atoms: N2_6  and  N3_7 
REMARK    5  A    between atoms: N3_7  and  C3_8 
REMARK    6  A    between atoms: C3_8  and  C4_9 
REMARK    7  A    between atoms: C7_12  and  C8_13 
REMARK    8  A    between atoms: C16_24  and  C17_25 
REMARK    9  A    between atoms: C22_30  and  N4_31 
REMARK       I    between atoms: N4_31  and  C23_32 
REMARK   10  A    between atoms: C23_32  and  C24_34 
ROOT
HETATM    1  C11 UNL     1       1.886  -1.031  -0.660  1.00  0.00     0.044 A 
HETATM    2  C12 UNL     1       1.868  -0.520  -1.961  1.00  0.00     0.004 A 
HETATM    3  C13 UNL     1       0.705  -0.299  -2.639  1.00  0.00     0.000 A 
HETATM    4  C14 UNL     1      -0.531  -0.568  -2.083  1.00  0.00     0.000 A 
HETATM    5  C15 UNL     1      -1.688  -0.379  -2.787  1.00  0.00     0.000 A 
HETATM    6  C16 UNL     1      -2.943  -0.678  -2.240  1.00  0.00     0.002 A 
HETATM    7  C34 UNL     1      -2.960  -1.162  -0.980  1.00  0.00     0.000 A 
HETATM    8  C35 UNL     1      -1.777  -1.367  -0.243  1.00  0.00     0.000 A 
HETATM    9  C36 UNL     1      -0.530  -1.063  -0.812  1.00  0.00     0.000 A 
HETATM   10  C37 UNL     1       0.666  -1.291  -0.110  1.00  0.00     0.004 A 
ENDROOT
BRANCH   6  11
HETATM   11  C17 UNL     1      -4.048  -0.440  -3.162  1.00  0.00     0.018 A 
HETATM   12  C18 UNL     1      -3.816  -0.616  -4.551  1.00  0.00     0.002 A 
HETATM   13  C19 UNL     1      -4.790  -0.325  -5.491  1.00  0.00     0.000 A 
HETATM   14  C20 UNL     1      -6.019   0.152  -5.016  1.00  0.00     0.002 A 
HETATM   15  C21 UNL     1      -6.223   0.315  -3.692  1.00  0.00     0.019 A 
HETATM   16  C22 UNL     1      -5.233   0.018  -2.715  1.00  0.00     0.085 A 
BRANCH  16  17
HETATM   17  N4  UNL     1      -5.626   0.110  -1.392  1.00  0.00    -0.208 NA
HETATM   18  C23 UNL     1      -6.791   0.726  -0.908  1.00  0.00     0.279 C 
HETATM   19  O2  UNL     1      -7.566   1.285  -1.745  1.00  0.00    -0.265 OA
BRANCH  18  20
HETATM   20  C24 UNL     1      -7.096   0.707   0.517  1.00  0.00     0.058 A 
HETATM   21  C25 UNL     1      -6.195   1.007   1.506  1.00  0.00     0.005 A 
HETATM   22  C26 UNL     1      -6.564   0.907   2.856  1.00  0.00     0.000 A 
HETATM   23  C27 UNL     1      -7.816   0.513   3.244  1.00  0.00     0.000 A 
HETATM   24  C28 UNL     1      -8.173   0.402   4.582  1.00  0.00     0.000 A 
HETATM   25  C32 UNL     1      -8.724   0.202   2.258  1.00  0.00     0.000 A 
HETATM   26  C29 UNL     1      -9.451  -0.033   4.958  1.00  0.00     0.000 A 
HETATM   27  C30 UNL     1     -10.327  -0.338   3.974  1.00  0.00     0.000 A 
HETATM   28  C31 UNL     1      -9.980  -0.224   2.637  1.00  0.00     0.000 A 
HETATM   29  C33 UNL     1      -8.361   0.303   0.945  1.00  0.00     0.005 A 
ENDBRANCH  18  20
ENDBRANCH  16  17
ENDBRANCH   6  11
BRANCH   1  30
HETATM   30  C1  UNL     1       3.188  -1.326  -0.113  1.00  0.00     0.215 C 
HETATM   31  O1  UNL     1       3.860  -2.294  -0.669  1.00  0.00    -0.169 OA
HETATM   32  N1  UNL     1       3.818  -0.700   0.942  1.00  0.00    -0.190 NA
BRANCH  32  33
HETATM   33  C2  UNL     1       5.148  -1.112   1.361  1.00  0.00     0.242 C 
HETATM   34  S1  UNL     1       5.817  -2.366   0.499  1.00  0.00    -0.035 SA
BRANCH  33  35
HETATM   35  N2  UNL     1       5.874  -0.567   2.368  1.00  0.00    -0.117 NA
BRANCH  35  36
HETATM   36  N3  UNL     1       5.875   0.365   3.314  1.00  0.00    -0.144 NA
BRANCH  36  37
HETATM   37  C3  UNL     1       6.831   1.268   3.408  1.00  0.00     0.122 C 
BRANCH  37  38
HETATM   38  C4  UNL     1       7.907   1.171   2.382  1.00  0.00     0.021 A 
HETATM   39  C5  UNL     1       7.905   0.177   1.466  1.00  0.00     0.002 A 
HETATM   40  C6  UNL     1       8.856   0.088   0.473  1.00  0.00     0.004 A 
HETATM   41  C7  UNL     1       9.873   1.070   0.411  1.00  0.00     0.071 A 
HETATM   42  C9  UNL     1       9.851   2.047   1.339  1.00  0.00     0.004 A 
HETATM   43  C10 UNL     1       8.906   2.156   2.347  1.00  0.00     0.002 A 
BRANCH  41  44
HETATM   44  C8  UNL     1      10.872   0.983  -0.685  1.00  0.00     0.419 C 
HETATM   45  F1  UNL     1      10.177   0.835  -1.877  1.00  0.00    -0.166 F 
HETATM   46  F2  UNL     1      11.734  -0.038  -0.485  1.00  0.00    -0.166 F 
HETATM   47  F3  UNL     1      11.614   2.139  -0.767  1.00  0.00    -0.166 F 
ENDBRANCH  41  44
ENDBRANCH  37  38
ENDBRANCH  36  37
ENDBRANCH  35  36
ENDBRANCH  33  35
ENDBRANCH  32  33
ENDBRANCH   1  30
TORSDOF 10
