REMARK  7 active torsions:
REMARK  status: ('A' for Active; 'I' for Inactive)
REMARK       I    between atoms: C1_2  and  N1_3 
REMARK    1  A    between atoms: C1_2  and  S2_25 
REMARK    2  A    between atoms: N1_3  and  C2_4 
REMARK    3  A    between atoms: C7_9  and  S1_10 
REMARK    4  A    between atoms: S1_10  and  N2_13 
REMARK    5  A    between atoms: N3_16  and  C10_17 
REMARK    6  A    between atoms: S2_25  and  N4_28 
REMARK    7  A    between atoms: N4_28  and  C18_29 
ROOT
HETATM    1  C2  UNL     1      -0.334  -1.238  -0.779  1.00  0.00     0.097 A 
HETATM    2  C3  UNL     1      -0.839  -1.403  -2.042  1.00  0.00     0.020 A 
HETATM    3  C4  UNL     1      -0.063  -1.211  -3.182  1.00  0.00     0.002 A 
HETATM    4  C5  UNL     1       1.244  -0.846  -3.050  1.00  0.00     0.001 A 
HETATM    5  C6  UNL     1       1.767  -0.676  -1.784  1.00  0.00     0.014 A 
HETATM    6  C7  UNL     1       0.984  -0.870  -0.641  1.00  0.00     0.116 A 
ENDROOT
BRANCH   1   7
HETATM    7  N1  UNL     1      -1.114  -1.431   0.390  1.00  0.00    -0.196 NA
HETATM    8  C1  UNL     1      -2.481  -1.811   0.323  1.00  0.00     0.384 C 
HETATM    9  O1  UNL     1      -2.994  -1.976  -0.812  1.00  0.00    -0.251 OA
BRANCH   8  10
HETATM   10  S2  UNL     1      -3.478  -2.059   1.732  1.00  0.00     0.342 S 
HETATM   11  O4  UNL     1      -4.495  -3.120   1.451  1.00  0.00    -0.193 OA
HETATM   12  O5  UNL     1      -2.635  -2.460   2.880  1.00  0.00    -0.193 OA
BRANCH  10  13
HETATM   13  N4  UNL     1      -4.215  -0.547   2.120  1.00  0.00    -0.128 NA
BRANCH  13  14
HETATM   14  C18 UNL     1      -5.088   0.035   1.127  1.00  0.00     0.206 A 
HETATM   15  N5  UNL     1      -5.748   1.173   1.216  1.00  0.00    -0.220 NA
HETATM   16  C19 UNL     1      -6.500   1.572   0.237  1.00  0.00     0.090 A 
HETATM   17  C20 UNL     1      -7.263   2.765   0.191  1.00  0.00     0.020 A 
HETATM   18  C24 UNL     1      -6.578   0.773  -0.873  1.00  0.00     0.050 A 
HETATM   19  C21 UNL     1      -8.001   3.042  -0.906  1.00  0.00     0.002 A 
HETATM   20  C22 UNL     1      -8.098   2.259  -2.036  1.00  0.00     0.001 A 
HETATM   21  C23 UNL     1      -7.353   1.086  -1.999  1.00  0.00     0.008 A 
HETATM   22  S3  UNL     1      -5.540  -0.525  -0.422  1.00  0.00    -0.046 SA
ENDBRANCH  13  14
ENDBRANCH  10  13
ENDBRANCH   8  10
ENDBRANCH   1   7
BRANCH   6  23
HETATM   23  S1  UNL     1       1.660  -0.651   0.955  1.00  0.00     0.248 S 
HETATM   24  O2  UNL     1       0.973   0.461   1.697  1.00  0.00    -0.206 OA
HETATM   25  O3  UNL     1       1.626  -1.931   1.742  1.00  0.00    -0.206 OA
BRANCH  23  26
HETATM   26  N2  UNL     1       3.316  -0.196   0.767  1.00  0.00    -0.173 NA
HETATM   27  C8  UNL     1       3.972  -1.317   0.077  1.00  0.00     0.113 C 
HETATM   28  C9  UNL     1       5.443  -1.054  -0.120  1.00  0.00     0.120 C 
HETATM   29  N3  UNL     1       5.638   0.354  -0.365  1.00  0.00    -0.345 N 
HETATM   30  C16 UNL     1       4.550   1.106  -0.911  1.00  0.00     0.120 C 
HETATM   31  C17 UNL     1       3.334   1.002  -0.057  1.00  0.00     0.113 C 
BRANCH  29  32
HETATM   32  C10 UNL     1       6.868   1.013  -0.081  1.00  0.00     0.056 A 
HETATM   33  C11 UNL     1       7.883   0.270   0.438  1.00  0.00     0.017 A 
HETATM   34  C12 UNL     1       9.067   0.886   0.714  1.00  0.00     0.002 A 
HETATM   35  C13 UNL     1       9.252   2.230   0.481  1.00  0.00     0.000 A 
HETATM   36  C14 UNL     1       8.209   2.956  -0.044  1.00  0.00     0.002 A 
HETATM   37  C15 UNL     1       7.029   2.339  -0.319  1.00  0.00     0.017 A 
ENDBRANCH  29  32
ENDBRANCH  23  26
ENDBRANCH   6  23
TORSDOF 7
