REMARK  17 active torsions:
REMARK  status: ('A' for Active; 'I' for Inactive)
REMARK    1  A    between atoms: C1_2  and  C2_4 
REMARK    2  A    between atoms: C2_4  and  C3_5 
REMARK    3  A    between atoms: C3_5  and  C4_6 
REMARK    4  A    between atoms: C4_6  and  C5_7 
REMARK    5  A    between atoms: C5_7  and  C6_8 
REMARK    6  A    between atoms: C7_9  and  C8_10 
REMARK    7  A    between atoms: C9_11  and  S1_12 
REMARK    8  A    between atoms: S1_12  and  C10_13 
REMARK    9  A    between atoms: C10_13  and  C11_14 
REMARK   10  A    between atoms: C12_16  and  S2_17 
REMARK   11  A    between atoms: S2_17  and  C13_18 
REMARK   12  A    between atoms: C13_18  and  C14_19 
REMARK   13  A    between atoms: C14_19  and  O5_21 
REMARK   14  A    between atoms: O5_21  and  C15_22 
REMARK   15  A    between atoms: C15_22  and  C16_23 
REMARK       I    between atoms: C16_23  and  N1_25 
REMARK   16  A    between atoms: N1_25  and  C17_26 
REMARK   17  A    between atoms: C22_31  and  C23_32 
ROOT
HETATM    1  C11 UNL     1       1.515  -1.638  -0.749  1.00  0.00     0.215 C 
HETATM    2  O3  UNL     1       0.686  -1.134  -1.768  1.00  0.00    -0.302 OA
HETATM    3  C12 UNL     1      -0.257  -0.281  -1.203  1.00  0.00     0.210 C 
HETATM    4  N2  UNL     1       0.061  -0.034   0.023  1.00  0.00    -0.180 NA
HETATM    5  C24 UNL     1       1.257  -0.713   0.375  1.00  0.00     0.286 C 
HETATM    6  O9  UNL     1       1.905  -0.522   1.427  1.00  0.00    -0.267 OA
ENDROOT
BRANCH   3   7
HETATM    7  S2  UNL     1      -1.715   0.395  -2.037  1.00  0.00    -0.059 SA
BRANCH   7   8
HETATM    8  C13 UNL     1      -2.599   1.435  -0.851  1.00  0.00     0.161 C 
BRANCH   8   9
HETATM    9  C14 UNL     1      -3.124   0.569   0.233  1.00  0.00     0.284 C 
HETATM   10  O4  UNL     1      -3.779   1.046   1.206  1.00  0.00    -0.263 OA
BRANCH   9  11
HETATM   11  O5  UNL     1      -2.898  -0.789   0.183  1.00  0.00    -0.291 OA
BRANCH  11  12
HETATM   12  C15 UNL     1      -3.354  -1.679   1.163  1.00  0.00     0.241 C 
BRANCH  12  13
HETATM   13  C16 UNL     1      -4.831  -1.660   1.301  1.00  0.00     0.286 C 
HETATM   14  O6  UNL     1      -5.416  -2.417   2.144  1.00  0.00    -0.267 OA
HETATM   15  N1  UNL     1      -5.691  -0.820   0.527  1.00  0.00    -0.209 NA
BRANCH  15  16
HETATM   16  C17 UNL     1      -7.111  -0.872   0.732  1.00  0.00     0.090 A 
HETATM   17  C18 UNL     1      -7.678  -1.717   1.666  1.00  0.00     0.019 A 
HETATM   18  C19 UNL     1      -9.038  -1.769   1.865  1.00  0.00     0.002 A 
HETATM   19  C20 UNL     1      -9.898  -0.968   1.131  1.00  0.00     0.000 A 
HETATM   20  C21 UNL     1      -9.334  -0.125   0.201  1.00  0.00     0.008 A 
HETATM   21  C22 UNL     1      -7.958  -0.072  -0.002  1.00  0.00     0.082 A 
BRANCH  21  22
HETATM   22  C23 UNL     1      -7.380   0.825  -0.993  1.00  0.00     0.212 C 
HETATM   23  O7  UNL     1      -6.157   0.892  -1.195  1.00  0.00    -0.644 OA
HETATM   24  O8  UNL     1      -8.223   1.629  -1.732  1.00  0.00    -0.644 OA
ENDBRANCH  21  22
ENDBRANCH  15  16
ENDBRANCH  12  13
ENDBRANCH  11  12
ENDBRANCH   9  11
ENDBRANCH   8   9
ENDBRANCH   7   8
ENDBRANCH   3   7
BRANCH   1  25
HETATM   25  C10 UNL     1       2.972  -1.684  -1.147  1.00  0.00     0.102 C 
BRANCH  25  26
HETATM   26  S1  UNL     1       3.560  -0.035  -1.556  1.00  0.00    -0.110 SA
BRANCH  26  27
HETATM   27  C9  UNL     1       3.563   1.022  -0.129  1.00  0.00     0.031 C 
HETATM   28  C8  UNL     1       4.655   1.109   0.610  1.00  0.00     0.006 C 
BRANCH  28  29
HETATM   29  C7  UNL     1       5.864   0.349   0.275  1.00  0.00    -0.004 C 
HETATM   30  C6  UNL     1       6.915   0.500   1.075  1.00  0.00    -0.026 C 
BRANCH  30  31
HETATM   31  C5  UNL     1       8.200  -0.200   0.865  1.00  0.00     0.026 C 
BRANCH  31  32
HETATM   32  C4  UNL     1       9.247   0.905   0.670  1.00  0.00     0.005 C 
BRANCH  32  33
HETATM   33  C3  UNL     1      10.577   0.177   0.456  1.00  0.00     0.012 C 
BRANCH  33  34
HETATM   34  C2  UNL     1      11.652   1.245   0.257  1.00  0.00     0.098 C 
BRANCH  34  35
HETATM   35  C1  UNL     1      11.340   2.084  -0.914  1.00  0.00     0.185 C 
HETATM   36  O1  UNL     1      10.293   1.834  -1.572  1.00  0.00    -0.647 OA
HETATM   37  O2  UNL     1      12.181   3.113  -1.272  1.00  0.00    -0.647 OA
ENDBRANCH  34  35
ENDBRANCH  33  34
ENDBRANCH  32  33
ENDBRANCH  31  32
ENDBRANCH  30  31
ENDBRANCH  28  29
ENDBRANCH  26  27
ENDBRANCH  25  26
ENDBRANCH   1  25
TORSDOF 17
