REMARK  7 active torsions:
REMARK  status: ('A' for Active; 'I' for Inactive)
REMARK       I    between atoms: C1_2  and  N1_3 
REMARK    1  A    between atoms: C1_2  and  C9_12 
REMARK    2  A    between atoms: N1_3  and  C2_4 
REMARK    3  A    between atoms: C2_4  and  C3_5 
REMARK       I    between atoms: N2_16  and  C13_17 
REMARK    4  A    between atoms: C13_17  and  C14_19 
REMARK    5  A    between atoms: C19_24  and  C20_25 
REMARK       I    between atoms: N3_30  and  C24_31 
REMARK    6  A    between atoms: C24_31  and  C25_33 
REMARK    7  A    between atoms: C25_33  and  C26_34 
ROOT
HETATM    1  C14 UNL     1       0.184   0.171  -2.054  1.00  0.00     0.054 A 
HETATM    2  C15 UNL     1       1.366   0.395  -2.844  1.00  0.00     0.004 A 
HETATM    3  C16 UNL     1       1.554  -0.291  -4.022  1.00  0.00     0.000 A 
HETATM    4  C17 UNL     1       0.587  -1.175  -4.406  1.00  0.00    -0.000 A 
HETATM    5  C18 UNL     1      -0.527  -1.375  -3.657  1.00  0.00    -0.002 A 
HETATM    6  C19 UNL     1      -0.778  -0.698  -2.430  1.00  0.00     0.003 A 
ENDROOT
BRANCH   1   7
HETATM    7  C13 UNL     1       0.110   0.869  -0.787  1.00  0.00     0.257 C 
HETATM    8  N2  UNL     1       0.966   0.414   0.283  1.00  0.00    -0.310 N 
HETATM    9  C9  UNL     1       1.966  -0.690   0.170  1.00  0.00     0.165 C 
HETATM   10  C12 UNL     1       1.069   0.923   1.615  1.00  0.00     0.105 C 
HETATM   11  C10 UNL     1       1.858  -1.291   1.623  1.00  0.00     0.034 C 
HETATM   12  C11 UNL     1       1.781  -0.036   2.482  1.00  0.00     0.027 C 
HETATM   13  O2  UNL     1      -0.638   1.825  -0.575  1.00  0.00    -0.267 OA
BRANCH   9  14
HETATM   14  C1  UNL     1       3.386  -0.166   0.159  1.00  0.00     0.276 C 
HETATM   15  O1  UNL     1       4.228  -0.876  -0.444  1.00  0.00    -0.268 OA
HETATM   16  N1  UNL     1       3.810   0.986   0.772  1.00  0.00    -0.209 NA
BRANCH  16  17
HETATM   17  C2  UNL     1       5.015   1.661   0.960  1.00  0.00     0.104 C 
BRANCH  17  18
HETATM   18  C3  UNL     1       6.114   0.654   1.298  1.00  0.00     0.047 A 
HETATM   19  C4  UNL     1       6.782  -0.095   0.350  1.00  0.00     0.004 A 
HETATM   20  C5  UNL     1       7.867  -0.897   0.731  1.00  0.00     0.000 A 
HETATM   21  C6  UNL     1       8.288  -0.961   2.039  1.00  0.00     0.002 A 
HETATM   22  C7  UNL     1       7.629  -0.214   3.014  1.00  0.00     0.030 A 
HETATM   23  C8  UNL     1       6.542   0.589   2.637  1.00  0.00     0.142 A 
HETATM   24  F1  UNL     1       5.850   1.246   3.611  1.00  0.00    -0.204 F 
ENDBRANCH  17  18
ENDBRANCH  16  17
ENDBRANCH   9  14
ENDBRANCH   1   7
BRANCH   6  25
HETATM   25  C20 UNL     1      -2.008  -0.999  -1.718  1.00  0.00     0.109 C 
HETATM   26  C21 UNL     1      -3.008  -1.645  -2.760  1.00  0.00     0.062 C 
HETATM   27  C22 UNL     1      -3.791  -0.402  -3.222  1.00  0.00     0.177 C 
HETATM   28  O3  UNL     1      -3.594  -0.167  -4.549  1.00  0.00    -0.221 OA
HETATM   29  C23 UNL     1      -3.333   0.748  -2.310  1.00  0.00     0.137 C 
HETATM   30  N3  UNL     1      -2.868  -0.059  -1.162  1.00  0.00    -0.315 N 
HETATM   31  C24 UNL     1      -3.338   0.110   0.148  1.00  0.00     0.238 C 
HETATM   32  O4  UNL     1      -2.866  -0.601   1.120  1.00  0.00    -0.272 OA
BRANCH  31  33
HETATM   33  C25 UNL     1      -4.395   1.082   0.572  1.00  0.00     0.115 C 
BRANCH  33  34
HETATM   34  C26 UNL     1      -5.487   0.348   1.259  1.00  0.00    -0.002 A 
HETATM   35  C27 UNL     1      -5.540  -1.024   1.379  1.00  0.00    -0.003 A 
HETATM   36  C28 UNL     1      -6.570  -1.680   2.045  1.00  0.00    -0.000 A 
HETATM   37  C29 UNL     1      -7.596  -0.914   2.609  1.00  0.00     0.001 A 
HETATM   38  C30 UNL     1      -7.573   0.455   2.505  1.00  0.00     0.011 A 
HETATM   39  C31 UNL     1      -6.528   1.063   1.841  1.00  0.00     0.054 A 
HETATM   40 CL1  UNL     1      -6.514   2.802   1.718  1.00  0.00    -0.083 Cl
ENDBRANCH  33  34
ENDBRANCH  31  33
ENDBRANCH   6  25
TORSDOF 7
