REMARK  5 active torsions:
REMARK  status: ('A' for Active; 'I' for Inactive)
REMARK    1  A    between atoms: C1_2  and  C2_4 
REMARK    2  A    between atoms: C2_4  and  C3_5 
REMARK    3  A    between atoms: C6_8  and  C7_9 
REMARK    4  A    between atoms: C11_13  and  C12_14 
REMARK    5  A    between atoms: C17_19  and  C18_20 
ROOT
HETATM    1  C7  UNL     1       2.434   0.178   0.253  1.00  0.00     0.083 A 
HETATM    2  C8  UNL     1       1.797  -0.520  -0.751  1.00  0.00     0.022 A 
HETATM    3  C9  UNL     1       0.495  -0.092  -0.820  1.00  0.00     0.041 A 
HETATM    4  C10 UNL     1      -0.624  -0.363  -1.565  1.00  0.00     0.024 A 
HETATM    5  C11 UNL     1      -1.834   0.280  -1.368  1.00  0.00     0.103 A 
HETATM    6  N3  UNL     1      -1.886   1.204  -0.401  1.00  0.00    -0.147 NA
HETATM    7  N4  UNL     1      -0.840   1.514   0.355  1.00  0.00    -0.129 NA
HETATM    8  C24 UNL     1       0.365   0.940   0.230  1.00  0.00     0.184 A 
HETATM    9  N5  UNL     1       1.566   1.034   0.816  1.00  0.00    -0.225 NA
ENDROOT
BRANCH   5  10
HETATM   10  C12 UNL     1      -2.982  -0.056  -2.196  1.00  0.00     0.021 A 
HETATM   11  C13 UNL     1      -2.964   0.119  -3.580  1.00  0.00     0.002 A 
HETATM   12  C14 UNL     1      -4.104  -0.230  -4.283  1.00  0.00     0.000 A 
HETATM   13  C15 UNL     1      -5.233  -0.738  -3.652  1.00  0.00     0.000 A 
HETATM   14  C16 UNL     1      -5.241  -0.908  -2.284  1.00  0.00     0.002 A 
HETATM   15  C17 UNL     1      -4.099  -0.559  -1.568  1.00  0.00     0.019 A 
BRANCH  15  16
HETATM   16  C18 UNL     1      -4.099  -0.735  -0.122  1.00  0.00     0.085 A 
HETATM   17  N1  UNL     1      -3.217  -1.557   0.453  1.00  0.00    -0.224 NA
HETATM   18  C19 UNL     1      -3.120  -1.800   1.763  1.00  0.00     0.200 A 
HETATM   19  N2  UNL     1      -4.002  -1.145   2.548  1.00  0.00    -0.217 NA
HETATM   20  C20 UNL     1      -4.937  -0.286   2.040  1.00  0.00     0.114 A 
HETATM   21  S1  UNL     1      -6.178   0.693   2.675  1.00  0.00    -0.067 SA
HETATM   22  C23 UNL     1      -5.018  -0.053   0.700  1.00  0.00     0.042 A 
HETATM   23  C21 UNL     1      -6.770   1.375   1.229  1.00  0.00     0.037 A 
HETATM   24  C22 UNL     1      -5.972   0.811   0.288  1.00  0.00     0.011 A 
ENDBRANCH  15  16
ENDBRANCH   5  10
BRANCH   1  25
HETATM   25  C6  UNL     1       3.832   0.023   0.652  1.00  0.00     0.018 A 
HETATM   26  C5  UNL     1       4.672  -0.878   0.031  1.00  0.00     0.001 A 
HETATM   27  C4  UNL     1       5.980  -1.000   0.426  1.00  0.00    -0.004 A 
HETATM   28  C3  UNL     1       6.515  -0.235   1.454  1.00  0.00    -0.011 A 
HETATM   29  C26 UNL     1       5.686   0.656   2.070  1.00  0.00    -0.004 A 
HETATM   30  C25 UNL     1       4.367   0.781   1.673  1.00  0.00     0.001 A 
BRANCH  28  31
HETATM   31  C2  UNL     1       7.942  -0.452   1.797  1.00  0.00     0.124 C 
BRANCH  31  32
HETATM   32  C1  UNL     1       8.834   0.430   1.015  1.00  0.00     0.190 C 
HETATM   33  O1  UNL     1       8.437   1.249   0.174  1.00  0.00    -0.647 OA
HETATM   34  O2  UNL     1      10.198   0.322   1.247  1.00  0.00    -0.647 OA
ENDBRANCH  31  32
ENDBRANCH  28  31
ENDBRANCH   1  25
TORSDOF 5
