REMARK  9 active torsions:
REMARK  status: ('A' for Active; 'I' for Inactive)
REMARK    1  A    between atoms: C1_2  and  C2_4 
REMARK       I    between atoms: C2_4  and  N1_6 
REMARK    2  A    between atoms: N1_6  and  C3_7 
REMARK       I    between atoms: N2_11  and  C7_12 
REMARK    3  A    between atoms: C7_12  and  C8_14 
REMARK    4  A    between atoms: C8_14  and  S1_15 
REMARK    5  A    between atoms: S1_15  and  C9_16 
REMARK    6  A    between atoms: C11_20  and  N4_21 
REMARK    7  A    between atoms: N4_21  and  S2_22 
REMARK    8  A    between atoms: S2_22  and  C12_25 
REMARK    9  A    between atoms: C19_32  and  C20_33 
ROOT
HETATM    1  C9  UNL     1      -0.062  -0.391  -1.016  1.00  0.00     0.149 C 
HETATM    2  N3  UNL     1      -0.203   0.799  -0.511  1.00  0.00    -0.200 NA
HETATM    3  C10 UNL     1      -1.374   1.263   0.174  1.00  0.00     0.284 C 
HETATM    4  O5  UNL     1      -1.167   2.082   1.134  1.00  0.00    -0.268 OA
HETATM    5  C11 UNL     1      -2.783   0.902  -0.106  1.00  0.00     0.218 C 
HETATM    6  C18 UNL     1      -3.026  -0.539   0.100  1.00  0.00     0.011 C 
HETATM    7  C19 UNL     1      -2.282  -1.558  -0.284  1.00  0.00     0.039 C 
HETATM    8  C26 UNL     1      -1.012  -1.525  -1.030  1.00  0.00     0.219 C 
HETATM    9  O8  UNL     1      -0.717  -2.529  -1.722  1.00  0.00    -0.284 OA
ENDROOT
BRANCH   1  10
HETATM   10  S1  UNL     1       1.458  -0.800  -1.838  1.00  0.00    -0.082 SA
BRANCH  10  11
HETATM   11  C8  UNL     1       2.701   0.498  -1.746  1.00  0.00     0.151 C 
BRANCH  11  12
HETATM   12  C7  UNL     1       3.148   0.575  -0.301  1.00  0.00     0.245 C 
HETATM   13  N2  UNL     1       4.226  -0.213   0.146  1.00  0.00    -0.317 N 
HETATM   14  C6  UNL     1       4.905  -1.098  -0.779  1.00  0.00     0.104 C 
HETATM   15  C27 UNL     1       4.672  -0.152   1.520  1.00  0.00     0.128 C 
HETATM   16  C5  UNL     1       5.909  -1.981  -0.094  1.00  0.00     0.026 C 
HETATM   17  C4  UNL     1       6.820  -1.238   0.848  1.00  0.00     0.028 C 
HETATM   18  C3  UNL     1       6.202   0.002   1.443  1.00  0.00     0.129 C 
HETATM   19  O4  UNL     1       2.535   1.349   0.472  1.00  0.00    -0.271 OA
BRANCH  18  20
HETATM   20  N1  UNL     1       6.435   1.175   0.656  1.00  0.00    -0.229 NA
HETATM   21  C2  UNL     1       7.712   1.599   0.286  1.00  0.00     0.340 C 
HETATM   22  O3  UNL     1       8.733   0.932   0.650  1.00  0.00    -0.259 OA
BRANCH  21  23
HETATM   23  C1  UNL     1       7.920   2.801  -0.518  1.00  0.00     0.271 C 
HETATM   24  O1  UNL     1       6.867   3.435  -0.861  1.00  0.00    -0.640 OA
HETATM   25  O2  UNL     1       9.153   3.261  -0.908  1.00  0.00    -0.640 OA
ENDBRANCH  21  23
ENDBRANCH  18  20
ENDBRANCH  11  12
ENDBRANCH  10  11
ENDBRANCH   1  10
BRANCH   7  26
HETATM   26  C20 UNL     1      -2.745  -2.904   0.044  1.00  0.00     0.003 A 
HETATM   27  C21 UNL     1      -3.925  -3.115   0.727  1.00  0.00     0.000 A 
HETATM   28  C22 UNL     1      -4.351  -4.400   1.042  1.00  0.00     0.000 A 
HETATM   29  C23 UNL     1      -3.572  -5.461   0.661  1.00  0.00     0.000 A 
HETATM   30  C24 UNL     1      -2.387  -5.313  -0.022  1.00  0.00     0.000 A 
HETATM   31  C25 UNL     1      -2.011  -4.021  -0.310  1.00  0.00     0.000 A 
ENDBRANCH   7  26
BRANCH   5  32
HETATM   32  N4  UNL     1      -3.184   1.350  -1.400  1.00  0.00    -0.172 NA
BRANCH  32  33
HETATM   33  S2  UNL     1      -4.835   0.882  -1.698  1.00  0.00     0.282 S 
HETATM   34  O6  UNL     1      -5.290   1.424  -3.042  1.00  0.00    -0.199 OA
HETATM   35  O7  UNL     1      -4.985  -0.611  -1.711  1.00  0.00    -0.199 OA
BRANCH  33  36
HETATM   36  C12 UNL     1      -5.814   1.654  -0.488  1.00  0.00     0.105 A 
HETATM   37  C13 UNL     1      -6.082   1.000   0.685  1.00  0.00     0.013 A 
HETATM   38  C14 UNL     1      -6.854   1.578   1.691  1.00  0.00     0.001 A 
HETATM   39  C15 UNL     1      -7.335   2.847   1.438  1.00  0.00     0.000 A 
HETATM   40  C16 UNL     1      -7.088   3.536   0.271  1.00  0.00     0.001 A 
HETATM   41  C17 UNL     1      -6.310   2.903  -0.696  1.00  0.00     0.013 A 
ENDBRANCH  33  36
ENDBRANCH  32  33
ENDBRANCH   5  32
TORSDOF 9
