REMARK  5 active torsions:
REMARK  status: ('A' for Active; 'I' for Inactive)
REMARK    1  A    between atoms: N2_15  and  C12_16 
REMARK    2  A    between atoms: C12_16  and  C13_17 
REMARK    3  A    between atoms: C15_19  and  S1_20 
REMARK    4  A    between atoms: S1_20  and  N3_23 
REMARK    5  A    between atoms: C24_33  and  C25_34 
ROOT
HETATM    1  O1  UNL     1      -0.211  -2.422   0.965  1.00  0.00    -0.271 OA
HETATM    2  C1  UNL     1      -0.628  -1.208   0.924  1.00  0.00     0.253 C 
HETATM    3  C2  UNL     1      -2.007  -1.150   1.658  1.00  0.00     0.086 C 
HETATM    4  C3  UNL     1      -1.790   0.135   2.552  1.00  0.00     0.016 C 
HETATM    5  C4  UNL     1      -2.565   0.966   1.464  1.00  0.00     0.047 C 
HETATM    6  C5  UNL     1      -1.473   1.720   0.706  1.00  0.00     0.079 C 
HETATM    7  C6  UNL     1      -1.865   2.980   0.177  1.00  0.00     0.016 A 
HETATM    8  C7  UNL     1      -3.145   3.201  -0.240  1.00  0.00     0.001 A 
HETATM    9  C8  UNL     1      -3.608   4.389  -0.692  1.00  0.00     0.001 A 
HETATM   10  C9  UNL     1      -2.734   5.468  -0.733  1.00  0.00     0.011 A 
HETATM   11  C10 UNL     1      -1.437   5.305  -0.317  1.00  0.00     0.058 A 
HETATM   12 CL1  UNL     1      -0.382   6.728  -0.321  1.00  0.00    -0.082 Cl
HETATM   13  C11 UNL     1      -0.990   4.081   0.131  1.00  0.00     0.013 A 
HETATM   14  N1  UNL     1      -0.229   1.276   0.695  1.00  0.00    -0.171 NA
HETATM   15  N2  UNL     1       0.041  -0.188   0.321  1.00  0.00    -0.216 N 
HETATM   16  C24 UNL     1      -2.837  -0.304   0.772  1.00  0.00     0.037 C 
ENDROOT
BRANCH  15  17
HETATM   17  C12 UNL     1       1.036  -0.171  -0.690  1.00  0.00     0.158 C 
BRANCH  17  18
HETATM   18  C13 UNL     1       2.447  -0.263  -0.367  1.00  0.00     0.013 A 
HETATM   19  C14 UNL     1       3.119  -1.429  -0.004  1.00  0.00     0.011 A 
HETATM   20  C15 UNL     1       4.476  -1.439   0.048  1.00  0.00     0.098 A 
HETATM   21  C21 UNL     1       5.163  -0.226  -0.276  1.00  0.00     0.013 A 
HETATM   22  C22 UNL     1       4.486   0.920  -0.622  1.00  0.00     0.012 A 
HETATM   23  C23 UNL     1       3.136   0.925  -0.670  1.00  0.00     0.056 A 
HETATM   24 CL2  UNL     1       2.144   2.371  -0.980  1.00  0.00    -0.083 Cl
BRANCH  20  25
HETATM   25  S1  UNL     1       5.529  -2.823   0.317  1.00  0.00     0.247 S 
HETATM   26  O2  UNL     1       5.401  -3.836  -0.784  1.00  0.00    -0.206 OA
HETATM   27  O3  UNL     1       5.295  -3.412   1.628  1.00  0.00    -0.206 OA
BRANCH  25  28
HETATM   28  N3  UNL     1       7.212  -2.225   0.173  1.00  0.00    -0.177 NA
HETATM   29  C16 UNL     1       7.313  -1.280   1.248  1.00  0.00     0.088 C 
HETATM   30  C17 UNL     1       7.650   0.102   0.965  1.00  0.00     0.018 C 
HETATM   31  C18 UNL     1       8.592   0.336  -0.147  1.00  0.00     0.003 C 
HETATM   32  C19 UNL     1       8.383  -0.651  -1.251  1.00  0.00     0.018 C 
HETATM   33  C20 UNL     1       7.114  -1.393  -1.071  1.00  0.00     0.088 C 
ENDBRANCH  25  28
ENDBRANCH  20  25
ENDBRANCH  17  18
ENDBRANCH  15  17
BRANCH  16  34
HETATM   34  C25 UNL     1      -4.144  -0.619   0.331  1.00  0.00    -0.022 A 
HETATM   35  C26 UNL     1      -5.203   0.356   0.421  1.00  0.00    -0.004 A 
HETATM   36  C27 UNL     1      -6.458   0.051  -0.043  1.00  0.00    -0.000 A 
HETATM   37  C28 UNL     1      -6.744  -1.213  -0.611  1.00  0.00    -0.000 A 
HETATM   38  C29 UNL     1      -8.093  -1.453  -1.046  1.00  0.00    -0.000 A 
HETATM   39  C33 UNL     1      -5.755  -2.114  -0.683  1.00  0.00    -0.000 A 
HETATM   40  C30 UNL     1      -8.372  -2.684  -1.585  1.00  0.00    -0.000 A 
HETATM   41  C31 UNL     1      -7.329  -3.611  -1.664  1.00  0.00    -0.000 A 
HETATM   42  C32 UNL     1      -6.059  -3.382  -1.241  1.00  0.00    -0.000 A 
HETATM   43  C34 UNL     1      -4.480  -1.815  -0.219  1.00  0.00    -0.004 A 
ENDBRANCH  16  34
TORSDOF 5
