REMARK  5 active torsions:
REMARK  status: ('A' for Active; 'I' for Inactive)
REMARK    1  A    between atoms: C1_2  and  C2_3 
REMARK       I    between atoms: C1_2  and  N1_9 
REMARK    2  A    between atoms: C12_14  and  N2_15 
REMARK    3  A    between atoms: N2_15  and  C13_16 
REMARK    4  A    between atoms: C13_16  and  C14_17 
REMARK    5  A    between atoms: C14_17  and  C15_18 
ROOT
HETATM    1  O1  UNL     1      -3.297   1.680  -1.736  1.00  0.00    -0.267 OA
HETATM    2  C1  UNL     1      -3.054   0.491  -1.391  1.00  0.00     0.257 C 
HETATM    3  N1  UNL     1      -1.739   0.085  -1.072  1.00  0.00    -0.312 N 
HETATM    4  C8  UNL     1      -0.743   1.145  -1.183  1.00  0.00     0.105 C 
HETATM    5  C9  UNL     1      -0.396   1.765   0.127  1.00  0.00     0.029 C 
HETATM    6  C10 UNL     1      -0.382   0.833   1.287  1.00  0.00     0.032 C 
HETATM    7  C11 UNL     1       0.251  -0.504   0.927  1.00  0.00     0.019 A 
HETATM    8  C12 UNL     1       1.444  -0.855   1.478  1.00  0.00     0.162 A 
HETATM    9  N3  UNL     1       1.936  -2.044   1.112  1.00  0.00    -0.191 NA
HETATM   10  S1  UNL     1       0.804  -2.674   0.043  1.00  0.00     0.012 SA
HETATM   11  C21 UNL     1      -0.309  -1.396   0.068  1.00  0.00     0.047 A 
HETATM   12  C22 UNL     1      -1.604  -1.303  -0.694  1.00  0.00     0.139 C 
ENDROOT
BRANCH   8  13
HETATM   13  N2  UNL     1       2.192  -0.023   2.419  1.00  0.00    -0.252 NA
BRANCH  13  14
HETATM   14  C13 UNL     1       3.456  -0.460   2.966  1.00  0.00     0.132 C 
BRANCH  14  15
HETATM   15  C14 UNL     1       4.390  -0.661   1.765  1.00  0.00     0.053 C 
BRANCH  15  16
HETATM   16  C15 UNL     1       4.571   0.585   1.002  1.00  0.00    -0.020 A 
HETATM   17  C16 UNL     1       3.708   0.865  -0.031  1.00  0.00    -0.004 A 
HETATM   18  C17 UNL     1       3.791   1.999  -0.804  1.00  0.00    -0.000 A 
HETATM   19  C18 UNL     1       4.795   2.897  -0.521  1.00  0.00    -0.000 A 
HETATM   20  C19 UNL     1       5.680   2.650   0.508  1.00  0.00    -0.000 A 
HETATM   21  C20 UNL     1       5.569   1.501   1.265  1.00  0.00    -0.004 A 
ENDBRANCH  15  16
ENDBRANCH  14  15
ENDBRANCH  13  14
ENDBRANCH   8  13
BRANCH   2  22
HETATM   22  C2  UNL     1      -4.117  -0.491  -1.312  1.00  0.00     0.056 A 
HETATM   23  C3  UNL     1      -3.915  -1.799  -0.943  1.00  0.00     0.005 A 
HETATM   24  C4  UNL     1      -4.958  -2.702  -0.881  1.00  0.00     0.000 A 
HETATM   25  C5  UNL     1      -6.231  -2.258  -1.203  1.00  0.00     0.000 A 
HETATM   26  C6  UNL     1      -6.449  -0.948  -1.575  1.00  0.00     0.000 A 
HETATM   27  C7  UNL     1      -5.393  -0.091  -1.623  1.00  0.00     0.005 A 
ENDBRANCH   2  22
TORSDOF 5
