REMARK  12 active torsions:
REMARK  status: ('A' for Active; 'I' for Inactive)
REMARK    1  A    between atoms: C1_2  and  C2_3 
REMARK    2  A    between atoms: C1_2  and  C30_42 
REMARK    3  A    between atoms: C2_3  and  S1_4 
REMARK    4  A    between atoms: S1_4  and  C3_5 
REMARK    5  A    between atoms: C3_5  and  C4_6 
REMARK    6  A    between atoms: C4_6  and  C5_7 
REMARK    7  A    between atoms: C4_6  and  N3_23 
REMARK    8  A    between atoms: C5_7  and  C6_8 
REMARK       I    between atoms: C6_8  and  N1_10 
REMARK    9  A    between atoms: N2_13  and  C9_14 
REMARK   10  A    between atoms: C19_26  and  C20_27 
REMARK   11  A    between atoms: C19_26  and  C23_33 
REMARK   12  A    between atoms: C20_27  and  N4_28 
ROOT
HETATM    1  C4  UNL     1      -0.052  -0.793   1.432  1.00  0.00     0.048 C 
ENDROOT
BRANCH   1   2
HETATM    2  C3  UNL     1      -1.292  -0.244   1.621  1.00  0.00     0.043 C 
BRANCH   2   3
HETATM    3  S1  UNL     1      -2.296   1.011   1.256  1.00  0.00    -0.104 SA
BRANCH   3   4
HETATM    4  C2  UNL     1      -2.007   2.682   1.655  1.00  0.00     0.131 C 
BRANCH   4   5
HETATM    5  C1  UNL     1      -1.024   3.429   0.888  1.00  0.00     0.184 C 
HETATM    6  O1  UNL     1      -0.500   2.910  -0.124  1.00  0.00    -0.290 OA
BRANCH   5   7
HETATM    7  C30 UNL     1      -0.649   4.789   1.305  1.00  0.00     0.036 A 
HETATM    8  C31 UNL     1       0.277   5.480   0.579  1.00  0.00     0.003 A 
HETATM    9  C32 UNL     1       0.637   6.748   0.955  1.00  0.00     0.000 A 
HETATM   10  C33 UNL     1       0.094   7.369   2.057  1.00  0.00     0.000 A 
HETATM   11  C34 UNL     1      -0.840   6.650   2.775  1.00  0.00     0.000 A 
HETATM   12  C35 UNL     1      -1.211   5.378   2.409  1.00  0.00     0.003 A 
ENDBRANCH   5   7
ENDBRANCH   4   5
ENDBRANCH   3   4
ENDBRANCH   2   3
ENDBRANCH   1   2
BRANCH   1  13
HETATM   13  C5  UNL     1       1.257  -0.306   1.767  1.00  0.00     0.072 C 
BRANCH  13  14
HETATM   14  C6  UNL     1       1.675   0.942   1.177  1.00  0.00     0.258 C 
HETATM   15  O2  UNL     1       1.656   2.025   1.838  1.00  0.00    -0.267 OA
HETATM   16  N1  UNL     1       2.124   0.994  -0.165  1.00  0.00    -0.313 N 
HETATM   17  C7  UNL     1       2.140  -0.234  -0.928  1.00  0.00     0.129 C 
HETATM   18  C16 UNL     1       2.579   2.241  -0.798  1.00  0.00     0.129 C 
HETATM   19  C8  UNL     1       3.544  -0.578  -1.296  1.00  0.00     0.126 C 
HETATM   20  N2  UNL     1       4.281   0.648  -1.515  1.00  0.00    -0.344 N 
HETATM   21  C15 UNL     1       3.657   1.924  -1.830  1.00  0.00     0.126 C 
BRANCH  20  22
HETATM   22  C9  UNL     1       5.686   0.607  -1.417  1.00  0.00     0.067 A 
HETATM   23  C10 UNL     1       6.412   0.960  -2.540  1.00  0.00     0.018 A 
HETATM   24  C11 UNL     1       7.777   0.951  -2.542  1.00  0.00     0.002 A 
HETATM   25  C12 UNL     1       8.439   0.584  -1.404  1.00  0.00     0.001 A 
HETATM   26  C13 UNL     1       7.726   0.227  -0.269  1.00  0.00     0.013 A 
HETATM   27  C14 UNL     1       6.361   0.242  -0.288  1.00  0.00     0.073 A 
HETATM   28 CL1  UNL     1       5.439  -0.204   1.135  1.00  0.00    -0.081 Cl
ENDBRANCH  20  22
ENDBRANCH  13  14
ENDBRANCH   1  13
BRANCH   1  29
HETATM   29  N3  UNL     1      -0.007  -2.128   0.791  1.00  0.00    -0.252 NA
HETATM   30  C17 UNL     1      -0.689  -3.072   1.648  1.00  0.00     0.077 C 
HETATM   31  C18 UNL     1      -1.548  -3.924   0.726  1.00  0.00     0.025 C 
HETATM   32  C19 UNL     1      -1.829  -3.021  -0.445  1.00  0.00     0.060 C 
HETATM   33  C29 UNL     1      -0.649  -2.106  -0.478  1.00  0.00     0.083 C 
BRANCH  32  34
HETATM   34  C20 UNL     1      -1.979  -3.791  -1.736  1.00  0.00     0.135 C 
BRANCH  34  35
HETATM   35  N4  UNL     1      -3.083  -4.728  -1.609  1.00  0.00    -0.230 N 
HETATM   36  C21 UNL     1      -3.037  -6.011  -1.167  1.00  0.00     0.197 A 
HETATM   37  N5  UNL     1      -4.254  -6.556  -1.193  1.00  0.00    -0.201 NA
HETATM   38  C22 UNL     1      -5.092  -5.616  -1.656  1.00  0.00     0.221 A 
HETATM   39  N6  UNL     1      -4.372  -4.516  -1.903  1.00  0.00    -0.145 NA
ENDBRANCH  34  35
ENDBRANCH  32  34
BRANCH  32  40
HETATM   40  C23 UNL     1      -3.093  -2.279  -0.164  1.00  0.00     0.008 A 
HETATM   41  C24 UNL     1      -3.775  -2.492   1.014  1.00  0.00     0.000 A 
HETATM   42  C25 UNL     1      -4.940  -1.831   1.310  1.00  0.00     0.029 A 
HETATM   43  C26 UNL     1      -5.478  -0.922   0.436  1.00  0.00     0.142 A 
HETATM   44  F1  UNL     1      -6.637  -0.249   0.705  1.00  0.00    -0.204 F 
HETATM   45  C27 UNL     1      -4.783  -0.716  -0.746  1.00  0.00     0.059 A 
HETATM   46  C28 UNL     1      -3.622  -1.372  -1.046  1.00  0.00     0.139 A 
HETATM   47  F2  UNL     1      -3.018  -1.105  -2.219  1.00  0.00    -0.204 F 
ENDBRANCH  32  40
ENDBRANCH   1  29
TORSDOF 12
