REMARK  3 active torsions:
REMARK  status: ('A' for Active; 'I' for Inactive)
REMARK    1  A    between atoms: C3_5  and  C4_6 
REMARK    2  A    between atoms: C11_14  and  N1_15 
REMARK       I    between atoms: N1_15  and  C12_16 
REMARK    3  A    between atoms: C12_16  and  C13_18 
ROOT
HETATM    1  O1  UNL     1      -5.657  -1.280  -0.345  1.00  0.00    -0.256 OA
HETATM    2  C1  UNL     1      -4.395  -1.156  -0.209  1.00  0.00     0.331 C 
HETATM    3  O2  UNL     1      -3.528  -0.415  -0.986  1.00  0.00    -0.298 OA
HETATM    4  C2  UNL     1      -2.186  -0.666  -0.645  1.00  0.00     0.141 C 
HETATM    5  C3  UNL     1      -1.550   0.547  -0.058  1.00  0.00     0.080 C 
HETATM    6  C10 UNL     1      -0.138   0.771  -0.559  1.00  0.00     0.151 C 
HETATM    7  O3  UNL     1       0.280  -0.228  -1.412  1.00  0.00    -0.333 OA
HETATM    8  C11 UNL     1       1.211  -1.086  -0.874  1.00  0.00     0.250 C 
HETATM    9  C19 UNL     1       0.926  -1.522   0.527  1.00  0.00     0.166 C 
HETATM   10  C20 UNL     1       0.770  -3.009   0.548  1.00  0.00     0.037 C 
HETATM   11  C21 UNL     1      -0.516  -3.248   1.285  1.00  0.00     0.033 C 
HETATM   12  C22 UNL     1      -1.148  -1.874   1.291  1.00  0.00     0.125 C 
HETATM   13  O5  UNL     1      -0.163  -0.944   1.106  1.00  0.00    -0.354 OA
HETATM   14  C23 UNL     1      -2.223  -1.863   0.238  1.00  0.00     0.123 C 
HETATM   15  C24 UNL     1      -3.586  -1.794   0.829  1.00  0.00     0.240 C 
HETATM   16  O6  UNL     1      -3.980  -2.188   1.965  1.00  0.00    -0.285 OA
ENDROOT
BRANCH   8  17
HETATM   17  N1  UNL     1       2.558  -0.543  -0.956  1.00  0.00    -0.204 NA
HETATM   18  C12 UNL     1       3.411  -0.371   0.153  1.00  0.00     0.277 C 
HETATM   19  O4  UNL     1       2.964  -0.713   1.278  1.00  0.00    -0.266 OA
BRANCH  18  20
HETATM   20  C13 UNL     1       4.764   0.180   0.037  1.00  0.00     0.058 A 
HETATM   21  C14 UNL     1       5.224   0.562  -1.205  1.00  0.00     0.005 A 
HETATM   22  C15 UNL     1       6.502   1.075  -1.269  1.00  0.00     0.000 A 
HETATM   23  C16 UNL     1       7.295   1.205  -0.140  1.00  0.00     0.000 A 
HETATM   24  C17 UNL     1       6.837   0.824   1.090  1.00  0.00     0.000 A 
HETATM   25  C18 UNL     1       5.545   0.304   1.162  1.00  0.00     0.005 A 
ENDBRANCH  18  20
ENDBRANCH   8  17
BRANCH   5  26
HETATM   26  C4  UNL     1      -2.368   1.775  -0.146  1.00  0.00    -0.018 A 
HETATM   27  C5  UNL     1      -1.846   3.040  -0.291  1.00  0.00    -0.004 A 
HETATM   28  C6  UNL     1      -2.672   4.162  -0.366  1.00  0.00    -0.000 A 
HETATM   29  C7  UNL     1      -4.022   4.020  -0.297  1.00  0.00    -0.000 A 
HETATM   30  C8  UNL     1      -4.567   2.773  -0.152  1.00  0.00    -0.000 A 
HETATM   31  C9  UNL     1      -3.738   1.661  -0.078  1.00  0.00    -0.004 A 
ENDBRANCH   5  26
TORSDOF 3
