REMARK  5 active torsions:
REMARK  status: ('A' for Active; 'I' for Inactive)
REMARK    1  A    between atoms: C11_11  and  C12_12 
REMARK    2  A    between atoms: C12_12  and  C13_13 
REMARK    3  A    between atoms: C16_16  and  C17_17 
REMARK    4  A    between atoms: N2_25  and  C23_26 
REMARK    5  A    between atoms: C23_26  and  C24_27 
ROOT
HETATM    1  C17 UNL     1      -0.422   0.989   1.192  1.00  0.00     0.158 C 
HETATM    2  N1  UNL     1      -0.680   1.392   2.389  1.00  0.00    -0.255 NA
HETATM    3  C18 UNL     1      -1.796   1.691   3.233  1.00  0.00     0.105 C 
HETATM    4  C19 UNL     1      -2.291   0.481   3.986  1.00  0.00     0.025 C 
HETATM    5  C20 UNL     1      -3.379  -0.266   3.204  1.00  0.00     0.012 C 
HETATM    6  C21 UNL     1      -3.339   0.296   1.802  1.00  0.00     0.088 C 
HETATM    7  C22 UNL     1      -4.177  -0.492   0.851  1.00  0.00     0.240 C 
HETATM    8  O1  UNL     1      -5.170  -1.085   1.347  1.00  0.00    -0.272 OA
HETATM    9  N2  UNL     1      -3.853  -0.554  -0.545  1.00  0.00    -0.262 N 
HETATM   10  C30 UNL     1      -3.113   0.520  -1.180  1.00  0.00     0.277 C 
HETATM   11  O2  UNL     1      -3.215   0.482  -2.462  1.00  0.00    -0.266 OA
HETATM   12  C31 UNL     1      -2.378   1.471  -0.364  1.00  0.00     0.117 C 
HETATM   13  N3  UNL     1      -1.130   1.152  -0.028  1.00  0.00    -0.227 NA
HETATM   14  C32 UNL     1      -3.019   2.772   0.102  1.00  0.00     0.051 C 
HETATM   15  C33 UNL     1      -2.516   3.271   1.399  1.00  0.00     0.009 C 
HETATM   16  C34 UNL     1      -2.890   2.481   2.605  1.00  0.00     0.025 C 
ENDROOT
BRANCH   1  17
HETATM   17  C16 UNL     1       0.817   0.227   1.055  1.00  0.00     0.035 A 
HETATM   18  C15 UNL     1       1.225  -0.270  -0.166  1.00  0.00     0.003 A 
HETATM   19  C14 UNL     1       2.391  -0.991  -0.321  1.00  0.00    -0.004 A 
HETATM   20  C13 UNL     1       3.212  -1.251   0.756  1.00  0.00    -0.022 A 
HETATM   21  C36 UNL     1       2.812  -0.758   1.981  1.00  0.00    -0.004 A 
HETATM   22  C35 UNL     1       1.644  -0.037   2.126  1.00  0.00     0.003 A 
BRANCH  20  23
HETATM   23  C12 UNL     1       4.473  -2.026   0.615  1.00  0.00     0.027 C 
BRANCH  23  24
HETATM   24  C11 UNL     1       5.663  -1.196   0.318  1.00  0.00     0.009 C 
HETATM   25  C2  UNL     1       6.009  -0.170   1.314  1.00  0.00     0.005 C 
HETATM   26  C1  UNL     1       6.440  -0.766   2.625  1.00  0.00     0.000 C 
HETATM   27  C3  UNL     1       7.032   0.792   0.810  1.00  0.00     0.026 C 
HETATM   28  C4  UNL     1       7.840   0.323  -0.337  1.00  0.00    -0.026 A 
HETATM   29  C5  UNL     1       9.190   0.688  -0.450  1.00  0.00    -0.005 A 
HETATM   30  C9  UNL     1       7.249  -0.469  -1.289  1.00  0.00    -0.026 A 
HETATM   31  C6  UNL     1       9.891   0.231  -1.537  1.00  0.00    -0.000 A 
HETATM   32  C7  UNL     1       9.324  -0.564  -2.509  1.00  0.00    -0.000 A 
HETATM   33  C8  UNL     1       7.977  -0.902  -2.351  1.00  0.00    -0.005 A 
HETATM   34  C10 UNL     1       5.841  -0.827  -1.119  1.00  0.00     0.026 C 
ENDBRANCH  23  24
ENDBRANCH  20  23
ENDBRANCH   1  17
BRANCH   9  35
HETATM   35  C23 UNL     1      -4.298  -1.730  -1.261  1.00  0.00     0.139 C 
BRANCH  35  36
HETATM   36  C24 UNL     1      -5.640  -1.583  -1.848  1.00  0.00     0.001 A 
HETATM   37  C25 UNL     1      -5.812  -1.093  -3.117  1.00  0.00    -0.002 A 
HETATM   38  C26 UNL     1      -7.094  -0.981  -3.608  1.00  0.00     0.011 A 
HETATM   39  C27 UNL     1      -8.217  -1.334  -2.892  1.00  0.00     0.058 A 
HETATM   40 CL1  UNL     1      -9.826  -1.161  -3.589  1.00  0.00    -0.082 Cl
HETATM   41  C28 UNL     1      -8.031  -1.826  -1.617  1.00  0.00     0.011 A 
HETATM   42  C29 UNL     1      -6.748  -1.940  -1.122  1.00  0.00    -0.002 A 
ENDBRANCH  35  36
ENDBRANCH   9  35
TORSDOF 5
