REMARK  4 active torsions:
REMARK  status: ('A' for Active; 'I' for Inactive)
REMARK    1  A    between atoms: C2_2  and  C4_4 
REMARK    2  A    between atoms: C4_4  and  N1_5 
REMARK    3  A    between atoms: C16_21  and  S1_22 
REMARK    4  A    between atoms: S1_22  and  C17_23 
ROOT
HETATM    1  N1  UNL     1       0.361  -1.098  -0.841  1.00  0.00    -0.276 N 
HETATM    2  C5  UNL     1      -1.049  -0.895  -0.848  1.00  0.00     0.332 C 
HETATM    3  O1  UNL     1      -1.697  -1.929  -1.227  1.00  0.00    -0.246 OA
HETATM    4  N2  UNL     1      -1.856   0.227  -0.519  1.00  0.00    -0.272 N 
HETATM    5  C6  UNL     1      -3.240  -0.143  -0.365  1.00  0.00     0.087 A 
HETATM    6  C7  UNL     1      -3.691  -1.317  -0.916  1.00  0.00     0.019 A 
HETATM    7  C8  UNL     1      -5.036  -1.653  -0.753  1.00  0.00     0.002 A 
HETATM    8  C9  UNL     1      -5.863  -0.809  -0.053  1.00  0.00     0.002 A 
HETATM    9  C10 UNL     1      -5.382   0.381   0.498  1.00  0.00     0.026 A 
HETATM   10  C11 UNL     1      -4.056   0.720   0.342  1.00  0.00     0.110 A 
HETATM   11  O2  UNL     1      -3.490   1.874   0.851  1.00  0.00    -0.327 OA
HETATM   12  C12 UNL     1      -2.479   2.517   0.067  1.00  0.00     0.179 C 
HETATM   13  C13 UNL     1      -1.401   1.584  -0.347  1.00  0.00     0.182 C 
HETATM   14  C14 UNL     1      -0.187   1.679   0.503  1.00  0.00     0.198 C 
HETATM   15  O3  UNL     1      -0.269   2.369   1.575  1.00  0.00    -0.289 OA
HETATM   16  C15 UNL     1       1.095   1.042   0.209  1.00  0.00     0.064 C 
HETATM   17  C16 UNL     1       1.319  -0.133  -0.360  1.00  0.00     0.097 C 
ENDROOT
BRANCH  17  18
HETATM   18  S1  UNL     1       2.997  -0.653  -0.593  1.00  0.00    -0.070 SA
BRANCH  18  19
HETATM   19  C17 UNL     1       4.137   0.568   0.014  1.00  0.00     0.031 A 
HETATM   20  C18 UNL     1       3.684   1.735   0.576  1.00  0.00     0.006 A 
HETATM   21  C19 UNL     1       4.620   2.663   1.038  1.00  0.00     0.001 A 
HETATM   22  C20 UNL     1       5.975   2.434   0.943  1.00  0.00     0.000 A 
HETATM   23  C21 UNL     1       6.414   1.266   0.380  1.00  0.00     0.001 A 
HETATM   24  C22 UNL     1       5.490   0.350  -0.076  1.00  0.00     0.006 A 
ENDBRANCH  18  19
ENDBRANCH  17  18
BRANCH   1  25
HETATM   25  C4  UNL     1       0.841  -2.348  -1.347  1.00  0.00     0.111 C 
BRANCH  25  26
HETATM   26  C2  UNL     1       0.961  -3.422  -0.307  1.00  0.00     0.023 C 
HETATM   27  C1  UNL     1      -0.322  -3.761   0.368  1.00  0.00     0.002 C 
HETATM   28  C3  UNL     1       2.123  -3.245   0.620  1.00  0.00     0.002 C 
ENDBRANCH  25  26
ENDBRANCH   1  25
TORSDOF 4
