REMARK  8 active torsions:
REMARK  status: ('A' for Active; 'I' for Inactive)
REMARK       I    between atoms: C1_2  and  N1_3 
REMARK    1  A    between atoms: C1_2  and  C10_13 
REMARK    2  A    between atoms: N1_3  and  C2_4 
REMARK    3  A    between atoms: C2_4  and  C3_5 
REMARK    4  A    between atoms: C3_5  and  C4_6 
REMARK    5  A    between atoms: C17_20  and  C18_21 
REMARK    6  A    between atoms: C18_21  and  C19_22 
REMARK    7  A    between atoms: C19_22  and  O3_23 
REMARK    8  A    between atoms: O3_23  and  C20_24 
ROOT
HETATM    1  C10 UNL     1       0.568  -0.942  -0.462  1.00  0.00     0.058 A 
HETATM    2  C11 UNL     1       0.756  -2.286  -0.254  1.00  0.00     0.005 A 
HETATM    3  C12 UNL     1      -0.282  -3.205  -0.321  1.00  0.00     0.000 A 
HETATM    4  C13 UNL     1      -1.567  -2.741  -0.611  1.00  0.00    -0.000 A 
HETATM    5  C14 UNL     1      -2.639  -3.588  -0.694  1.00  0.00    -0.000 A 
HETATM    6  C15 UNL     1      -3.878  -3.078  -0.983  1.00  0.00    -0.000 A 
HETATM    7  C16 UNL     1      -4.059  -1.730  -1.190  1.00  0.00    -0.004 A 
HETATM    8  C17 UNL     1      -3.003  -0.854  -1.113  1.00  0.00    -0.020 A 
HETATM    9  C26 UNL     1      -1.765  -1.398  -0.820  1.00  0.00    -0.004 A 
HETATM   10  C27 UNL     1      -0.701  -0.490  -0.747  1.00  0.00     0.004 A 
ENDROOT
BRANCH   1  11
HETATM   11  C1  UNL     1       1.709  -0.021  -0.378  1.00  0.00     0.275 C 
HETATM   12  O1  UNL     1       1.542   1.222  -0.549  1.00  0.00    -0.266 OA
HETATM   13  N1  UNL     1       3.021  -0.466  -0.108  1.00  0.00    -0.234 NA
BRANCH  13  14
HETATM   14  C2  UNL     1       4.138   0.472  -0.030  1.00  0.00     0.134 C 
BRANCH  14  15
HETATM   15  C3  UNL     1       5.388  -0.343   0.272  1.00  0.00     0.055 C 
BRANCH  15  16
HETATM   16  C4  UNL     1       6.521   0.634   0.350  1.00  0.00     0.005 A 
HETATM   17  C5  UNL     1       7.058   1.019   1.561  1.00  0.00    -0.002 A 
HETATM   18  C6  UNL     1       8.103   1.922   1.610  1.00  0.00    -0.000 A 
HETATM   19  C7  UNL     1       8.600   2.433   0.412  1.00  0.00     0.002 A 
HETATM   20  C8  UNL     1       8.085   2.067  -0.814  1.00  0.00     0.027 A 
HETATM   21  C9  UNL     1       7.043   1.165  -0.824  1.00  0.00     0.127 A 
HETATM   22  O2  UNL     1       6.458   0.736  -2.025  1.00  0.00    -0.191 OA
ENDBRANCH  15  16
ENDBRANCH  14  15
ENDBRANCH  13  14
ENDBRANCH   1  11
BRANCH   8  23
HETATM   23  C18 UNL     1      -3.153   0.615  -1.329  1.00  0.00     0.059 C 
BRANCH  23  24
HETATM   24  C19 UNL     1      -3.104   1.263   0.045  1.00  0.00     0.153 C 
BRANCH  24  25
HETATM   25  O3  UNL     1      -4.149   0.784   0.870  1.00  0.00    -0.330 OA
BRANCH  25  26
HETATM   26  C20 UNL     1      -5.480   0.949   0.511  1.00  0.00     0.094 A 
HETATM   27  C21 UNL     1      -6.506   0.480   1.319  1.00  0.00     0.024 A 
HETATM   28  C22 UNL     1      -7.817   0.674   0.908  1.00  0.00     0.002 A 
HETATM   29  C23 UNL     1      -8.083   1.323  -0.284  1.00  0.00     0.000 A 
HETATM   30  C24 UNL     1      -7.044   1.790  -1.089  1.00  0.00     0.002 A 
HETATM   31  C25 UNL     1      -5.759   1.593  -0.673  1.00  0.00     0.024 A 
ENDBRANCH  25  26
ENDBRANCH  24  25
ENDBRANCH  23  24
ENDBRANCH   8  23
TORSDOF 8
