REMARK  13 active torsions:
REMARK  status: ('A' for Active; 'I' for Inactive)
REMARK    1  A    between atoms: S1_2  and  C1_4 
REMARK    2  A    between atoms: S1_2  and  C8_11 
REMARK    3  A    between atoms: C1_4  and  C2_5 
REMARK    4  A    between atoms: C11_15  and  C12_16 
REMARK    5  A    between atoms: C12_16  and  C13_17 
REMARK    6  A    between atoms: C12_16  and  N3_32 
REMARK    7  A    between atoms: C13_17  and  C14_18 
REMARK    8  A    between atoms: C14_18  and  N1_19 
REMARK    9  A    between atoms: N2_22  and  C17_23 
REMARK   10  A    between atoms: C17_23  and  C18_24 
REMARK   11  A    between atoms: N4_35  and  C28_36 
REMARK   12  A    between atoms: C31_39  and  N5_40 
REMARK   13  A    between atoms: C35_44  and  C36_45 
ROOT
HETATM    1  C12 UNL     1       2.417   1.042  -0.859  1.00  0.00     0.245 C 
ENDROOT
BRANCH   1   2
HETATM    2  C11 UNL     1       2.550   2.409  -1.574  1.00  0.00     0.026 A 
HETATM    3  C8  UNL     1       3.187   3.434  -0.932  1.00  0.00     0.111 A 
HETATM    4  S2  UNL     1       3.068   4.714  -2.052  1.00  0.00    -0.076 SA
HETATM    5  C9  UNL     1       2.209   3.902  -3.305  1.00  0.00     0.036 A 
HETATM    6  C10 UNL     1       2.055   2.656  -2.781  1.00  0.00     0.006 A 
BRANCH   3   7
HETATM    7  S1  UNL     1       3.974   3.485   0.634  1.00  0.00     0.200 S 
HETATM    8  O1  UNL     1       4.576   2.146   0.911  1.00  0.00    -0.221 OA
HETATM    9  O2  UNL     1       5.082   4.532   0.579  1.00  0.00    -0.221 OA
BRANCH   7  10
HETATM   10  C1  UNL     1       2.831   3.984   1.869  1.00  0.00     0.154 C 
BRANCH  10  11
HETATM   11  C2  UNL     1       2.256   5.324   1.636  1.00  0.00    -0.006 A 
HETATM   12  C3  UNL     1       2.849   6.483   2.115  1.00  0.00    -0.003 A 
HETATM   13  C4  UNL     1       2.273   7.728   1.882  1.00  0.00    -0.000 A 
HETATM   14  C5  UNL     1       1.101   7.836   1.171  1.00  0.00    -0.000 A 
HETATM   15  C6  UNL     1       0.485   6.682   0.679  1.00  0.00    -0.000 A 
HETATM   16  C7  UNL     1       1.087   5.460   0.929  1.00  0.00    -0.003 A 
ENDBRANCH  10  11
ENDBRANCH   7  10
ENDBRANCH   3   7
ENDBRANCH   1   2
BRANCH   1  17
HETATM   17  C13 UNL     1       1.976   0.037  -1.933  1.00  0.00     0.073 C 
BRANCH  17  18
HETATM   18  C14 UNL     1       1.910  -1.327  -1.294  1.00  0.00     0.253 C 
BRANCH  18  19
HETATM   19  N1  UNL     1       3.172  -1.796  -0.836  1.00  0.00     0.141 N 
HETATM   20  C15 UNL     1       3.050  -3.071  -0.215  1.00  0.00     0.285 C 
HETATM   21  C16 UNL     1       3.680  -3.043   1.148  1.00  0.00     0.285 C 
HETATM   22  N2  UNL     1       5.074  -2.703   1.008  1.00  0.00     0.141 N 
HETATM   23  C24 UNL     1       5.103  -1.281   0.630  1.00  0.00     0.285 C 
HETATM   24  C25 UNL     1       3.838  -0.856  -0.018  1.00  0.00     0.285 C 
BRANCH  22  25
HETATM   25  C17 UNL     1       5.607  -3.404  -0.140  1.00  0.00     0.250 C 
BRANCH  25  26
HETATM   26  C18 UNL     1       5.666  -4.897   0.126  1.00  0.00     0.033 C 
HETATM   27  C19 UNL     1       6.572  -5.124   1.338  1.00  0.00     0.002 C 
HETATM   28  C20 UNL     1       7.745  -4.160   1.143  1.00  0.00     0.000 C 
HETATM   29  C21 UNL     1       8.553  -4.730   0.003  1.00  0.00     0.000 C 
HETATM   30  C22 UNL     1       7.689  -4.762  -1.235  1.00  0.00     0.000 C 
HETATM   31  C23 UNL     1       6.414  -5.550  -1.041  1.00  0.00     0.002 C 
ENDBRANCH  25  26
ENDBRANCH  22  25
ENDBRANCH  18  19
ENDBRANCH  17  18
ENDBRANCH   1  17
BRANCH   1  32
HETATM   32  N3  UNL     1       1.272   1.245   0.060  1.00  0.00     0.143 N 
HETATM   33  C26 UNL     1       0.845   0.090   0.722  1.00  0.00     0.275 C 
HETATM   34  C27 UNL     1      -0.610   0.019   1.050  1.00  0.00     0.137 C 
HETATM   35  N4  UNL     1      -1.434   0.379  -0.071  1.00  0.00    -0.344 N 
HETATM   36  C44 UNL     1      -0.828   1.075  -1.181  1.00  0.00     0.137 C 
HETATM   37  C45 UNL     1       0.228   1.994  -0.604  1.00  0.00     0.275 C 
BRANCH  35  38
HETATM   38  C28 UNL     1      -2.820   0.040  -0.041  1.00  0.00     0.056 A 
HETATM   39  C29 UNL     1      -3.393  -0.553   1.066  1.00  0.00     0.018 A 
HETATM   40  C30 UNL     1      -4.736  -0.875   1.095  1.00  0.00     0.018 A 
HETATM   41  C31 UNL     1      -5.574  -0.621   0.019  1.00  0.00     0.056 A 
HETATM   42  C42 UNL     1      -4.990  -0.027  -1.088  1.00  0.00     0.018 A 
HETATM   43  C43 UNL     1      -3.652   0.291  -1.110  1.00  0.00     0.018 A 
BRANCH  41  44
HETATM   44  N5  UNL     1      -6.943  -0.942   0.081  1.00  0.00    -0.346 N 
HETATM   45  C32 UNL     1      -7.869  -0.938  -1.017  1.00  0.00     0.102 C 
HETATM   46  C33 UNL     1      -9.158  -0.472  -0.384  1.00  0.00     0.026 C 
HETATM   47  C34 UNL     1      -8.904  -0.394   1.120  1.00  0.00     0.029 C 
HETATM   48  C35 UNL     1      -7.679  -1.314   1.255  1.00  0.00     0.104 C 
BRANCH  48  49
HETATM   49  C36 UNL     1      -8.169  -2.699   1.095  1.00  0.00    -0.002 A 
HETATM   50  C37 UNL     1      -8.002  -3.590   2.130  1.00  0.00    -0.003 A 
HETATM   51  C38 UNL     1      -8.464  -4.898   2.009  1.00  0.00    -0.000 A 
HETATM   52  C39 UNL     1      -9.101  -5.348   0.859  1.00  0.00    -0.000 A 
HETATM   53  C40 UNL     1      -9.265  -4.442  -0.180  1.00  0.00    -0.000 A 
HETATM   54  C41 UNL     1      -8.805  -3.169  -0.039  1.00  0.00    -0.003 A 
ENDBRANCH  48  49
ENDBRANCH  41  44
ENDBRANCH  35  38
ENDBRANCH   1  32
TORSDOF 13
