REMARK  10 active torsions:
REMARK  status: ('A' for Active; 'I' for Inactive)
REMARK    1  A    between atoms: C2_2  and  C4_4 
REMARK    2  A    between atoms: C9_9  and  N1_10 
REMARK       I    between atoms: N1_10  and  C10_11 
REMARK    3  A    between atoms: C10_11  and  C11_13 
REMARK    4  A    between atoms: C11_13  and  C12_14 
REMARK    5  A    between atoms: C11_13  and  N2_21 
REMARK    6  A    between atoms: C12_14  and  C13_15 
REMARK       I    between atoms: N2_21  and  C19_22 
REMARK    7  A    between atoms: C19_22  and  O3_24 
REMARK    8  A    between atoms: O3_24  and  C20_25 
REMARK    9  A    between atoms: C21_27  and  N3_28 
REMARK   10  A    between atoms: C24_32  and  C25_33 
ROOT
HETATM    1  N2  UNL     1      -2.022   1.391  -0.540  1.00  0.00    -0.185 NA
HETATM    2  C19 UNL     1      -1.013   0.785   0.279  1.00  0.00     0.390 C 
HETATM    3  O2  UNL     1      -1.418   0.025   1.194  1.00  0.00    -0.236 OA
ENDROOT
BRANCH   2   4
HETATM    4  O3  UNL     1       0.334   0.951   0.164  1.00  0.00    -0.254 OA
BRANCH   4   5
HETATM    5  C20 UNL     1       1.258   0.309   1.029  1.00  0.00     0.280 C 
HETATM    6  O4  UNL     1       2.570   0.587   0.757  1.00  0.00    -0.307 OA
HETATM    7  C21 UNL     1       3.305  -0.353   1.487  1.00  0.00     0.243 C 
HETATM    8  C29 UNL     1       2.497  -1.627   1.507  1.00  0.00     0.237 C 
HETATM    9  O6  UNL     1       2.992  -2.574   0.611  1.00  0.00    -0.216 OA
HETATM   10  C30 UNL     1       1.087  -1.185   1.088  1.00  0.00     0.243 C 
HETATM   11  O7  UNL     1       0.853  -1.634  -0.207  1.00  0.00    -0.215 OA
BRANCH   7  12
HETATM   12  N3  UNL     1       4.571  -0.530   0.790  1.00  0.00    -0.270 N 
HETATM   13  C22 UNL     1       4.954  -1.405  -0.137  1.00  0.00     0.182 A 
HETATM   14  N4  UNL     1       6.239  -1.180  -0.498  1.00  0.00    -0.222 NA
HETATM   15  C23 UNL     1       6.659  -0.139   0.228  1.00  0.00     0.121 A 
HETATM   16  C24 UNL     1       7.894   0.506   0.249  1.00  0.00     0.075 A 
HETATM   17  C28 UNL     1       5.631   0.273   1.032  1.00  0.00     0.165 A 
HETATM   18  C26 UNL     1       8.032   1.568   1.110  1.00  0.00     0.027 A 
HETATM   19  C27 UNL     1       6.996   1.981   1.920  1.00  0.00     0.101 A 
HETATM   20  N6  UNL     1       5.825   1.323   1.858  1.00  0.00    -0.225 NA
BRANCH  16  21
HETATM   21  C25 UNL     1       8.986   0.058  -0.613  1.00  0.00     0.268 C 
HETATM   22  N5  UNL     1       8.870  -1.030  -1.498  1.00  0.00    -0.057 NA
HETATM   23  O5  UNL     1      10.073   0.684  -0.548  1.00  0.00    -0.271 OA
ENDBRANCH  16  21
ENDBRANCH   7  12
ENDBRANCH   4   5
ENDBRANCH   2   4
BRANCH   1  24
HETATM   24  C11 UNL     1      -3.414   1.087  -0.258  1.00  0.00     0.126 C 
BRANCH  24  25
HETATM   25  C10 UNL     1      -3.775  -0.281  -0.597  1.00  0.00     0.293 C 
HETATM   26  N1  UNL     1      -5.009  -0.903  -0.367  1.00  0.00    -0.207 NA
HETATM   27  O1  UNL     1      -2.882  -1.005  -1.160  1.00  0.00    -0.264 OA
BRANCH  26  28
HETATM   28  C9  UNL     1      -5.261  -2.275  -0.742  1.00  0.00     0.081 A 
HETATM   29  C4  UNL     1      -6.454  -2.889  -0.435  1.00  0.00    -0.005 A 
HETATM   30  C5  UNL     1      -6.676  -4.204  -0.811  1.00  0.00    -0.003 A 
HETATM   31  C6  UNL     1      -5.748  -4.953  -1.493  1.00  0.00    -0.000 A 
HETATM   32  C7  UNL     1      -4.540  -4.341  -1.807  1.00  0.00     0.002 A 
HETATM   33  C8  UNL     1      -4.330  -3.022  -1.423  1.00  0.00     0.019 A 
BRANCH  29  34
HETATM   34  C2  UNL     1      -7.453  -2.083   0.309  1.00  0.00     0.024 C 
HETATM   35  C1  UNL     1      -8.631  -2.955   0.691  1.00  0.00     0.005 C 
HETATM   36  C3  UNL     1      -6.735  -1.499   1.507  1.00  0.00     0.005 C 
ENDBRANCH  29  34
ENDBRANCH  26  28
ENDBRANCH  24  25
BRANCH  24  37
HETATM   37  C12 UNL     1      -4.388   2.150  -0.550  1.00  0.00     0.077 C 
BRANCH  37  38
HETATM   38  C13 UNL     1      -3.847   3.470  -0.142  1.00  0.00    -0.016 A 
HETATM   39  C14 UNL     1      -3.123   4.252  -1.052  1.00  0.00    -0.004 A 
HETATM   40  C15 UNL     1      -2.601   5.480  -0.731  1.00  0.00    -0.000 A 
HETATM   41  C16 UNL     1      -2.785   5.987   0.546  1.00  0.00    -0.000 A 
HETATM   42  C17 UNL     1      -3.499   5.215   1.448  1.00  0.00    -0.000 A 
HETATM   43  C18 UNL     1      -4.022   3.984   1.122  1.00  0.00    -0.004 A 
ENDBRANCH  37  38
ENDBRANCH  24  37
ENDBRANCH   1  24
TORSDOF 10
