REMARK  1 active torsions:
REMARK  status: ('A' for Active; 'I' for Inactive)
REMARK    1  A    between atoms: C18_23  and  C19_24 
ROOT
HETATM    1  C1  UNL     1      -3.432  -1.084  -2.118  1.00  0.00     0.036 C 
HETATM    2  C2  UNL     1      -3.616  -1.111  -0.615  1.00  0.00     0.134 C 
HETATM    3  C3  UNL     1      -4.619  -2.212  -0.263  1.00  0.00     0.036 C 
HETATM    4  O1  UNL     1      -4.201   0.105  -0.236  1.00  0.00    -0.330 OA
HETATM    5  C4  UNL     1      -3.697   1.365  -0.015  1.00  0.00     0.097 A 
HETATM    6  C5  UNL     1      -4.567   2.389  -0.276  1.00  0.00     0.024 A 
HETATM    7  C6  UNL     1      -4.158   3.691  -0.086  1.00  0.00     0.002 A 
HETATM    8  C7  UNL     1      -2.892   4.008   0.360  1.00  0.00     0.000 A 
HETATM    9  C8  UNL     1      -2.001   2.992   0.627  1.00  0.00     0.005 A 
HETATM   10  C9  UNL     1      -2.430   1.693   0.431  1.00  0.00     0.061 A 
HETATM   11  C10 UNL     1      -1.357   0.769   0.760  1.00  0.00     0.199 C 
HETATM   12  O2  UNL     1      -0.332   1.183   1.396  1.00  0.00    -0.286 OA
HETATM   13  C11 UNL     1      -1.323  -0.675   0.421  1.00  0.00     0.057 C 
HETATM   14  C12 UNL     1      -2.331  -1.397   0.003  1.00  0.00     0.090 C 
HETATM   15  N1  UNL     1      -2.366  -2.836   0.110  1.00  0.00    -0.210 NA
HETATM   16  C13 UNL     1      -1.432  -3.710   0.782  1.00  0.00     0.279 C 
HETATM   17  O3  UNL     1      -1.673  -4.959   0.708  1.00  0.00    -0.265 OA
HETATM   18  C14 UNL     1      -0.246  -3.346   1.535  1.00  0.00     0.063 C 
HETATM   19  C15 UNL     1       0.428  -2.170   1.550  1.00  0.00     0.007 C 
HETATM   20  C16 UNL     1       0.053  -0.946   0.741  1.00  0.00     0.025 C 
HETATM   21  C17 UNL     1       0.993  -0.219   0.245  1.00  0.00     0.120 A 
HETATM   22  N2  UNL     1       2.369  -0.451   0.570  1.00  0.00    -0.242 NA
HETATM   23  C18 UNL     1       3.174   0.377  -0.250  1.00  0.00     0.085 A 
HETATM   24  C25 UNL     1       2.418   1.097  -1.052  1.00  0.00     0.063 A 
HETATM   25  C26 UNL     1       0.990   0.762  -0.789  1.00  0.00     0.215 A 
HETATM   26  O4  UNL     1       0.035   1.320  -1.445  1.00  0.00    -0.285 OA
ENDROOT
BRANCH  23  27
HETATM   27  C19 UNL     1       4.646   0.463  -0.252  1.00  0.00     0.018 A 
HETATM   28  C20 UNL     1       5.301   1.317  -1.108  1.00  0.00     0.002 A 
HETATM   29  C21 UNL     1       6.672   1.445  -1.159  1.00  0.00     0.000 A 
HETATM   30  C22 UNL     1       7.409   0.659  -0.290  1.00  0.00     0.000 A 
HETATM   31  C23 UNL     1       6.781  -0.206   0.579  1.00  0.00     0.000 A 
HETATM   32  C24 UNL     1       5.406  -0.312   0.607  1.00  0.00     0.002 A 
ENDBRANCH  23  27
TORSDOF 1
