REMARK  9 active torsions:
REMARK  status: ('A' for Active; 'I' for Inactive)
REMARK    1  A    between atoms: C3_3  and  C4_4 
REMARK    2  A    between atoms: C4_4  and  C5_5 
REMARK    3  A    between atoms: C5_5  and  O1_6 
REMARK    4  A    between atoms: O1_6  and  C6_7 
REMARK    5  A    between atoms: C6_7  and  C7_8 
REMARK    6  A    between atoms: C7_8  and  N1_9 
REMARK    7  A    between atoms: C12_16  and  C13_17 
REMARK    8  A    between atoms: C14_18  and  C15_19 
REMARK    9  A    between atoms: N3_26  and  C21_27 
ROOT
HETATM    1  C1  UNL     1       2.341  -0.574  -1.668  1.00  0.00     0.036 C 
HETATM    2  C2  UNL     1       1.273  -0.501  -0.626  1.00  0.00     0.033 C 
HETATM    3  C3  UNL     1       1.252   0.505   0.217  1.00  0.00     0.018 C 
HETATM    4  C11 UNL     1       0.148   0.455   1.216  1.00  0.00     0.194 C 
HETATM    5  O2  UNL     1       0.275   1.139   2.251  1.00  0.00    -0.289 OA
HETATM    6  C12 UNL     1      -1.066  -0.357   1.031  1.00  0.00     0.172 C 
HETATM    7  N3  UNL     1      -0.819  -1.574   0.316  1.00  0.00    -0.287 N 
HETATM    8  C27 UNL     1       0.264  -1.575  -0.625  1.00  0.00     0.257 C 
HETATM    9  O3  UNL     1       0.383  -2.486  -1.473  1.00  0.00    -0.267 OA
ENDROOT
BRANCH   3  10
HETATM   10  C4  UNL     1       2.193   1.625   0.269  1.00  0.00     0.061 C 
BRANCH  10  11
HETATM   11  C5  UNL     1       3.400   1.428  -0.552  1.00  0.00     0.147 C 
BRANCH  11  12
HETATM   12  O1  UNL     1       4.174   0.369  -0.100  1.00  0.00    -0.352 OA
BRANCH  12  13
HETATM   13  C6  UNL     1       4.559   0.624   1.238  1.00  0.00     0.169 C 
BRANCH  13  14
HETATM   14  C7  UNL     1       5.305   1.939   1.220  1.00  0.00     0.160 C 
BRANCH  14  15
HETATM   15  N1  UNL     1       6.447   1.806   0.349  1.00  0.00    -0.247 N 
HETATM   16  C8  UNL     1       6.512   2.043  -0.973  1.00  0.00     0.097 A 
HETATM   17  C9  UNL     1       7.826   1.781  -1.333  1.00  0.00     0.043 A 
HETATM   18  C10 UNL     1       8.513   1.390  -0.198  1.00  0.00     0.122 A 
HETATM   19  N2  UNL     1       7.632   1.417   0.821  1.00  0.00    -0.168 NA
ENDBRANCH  14  15
ENDBRANCH  13  14
ENDBRANCH  12  13
ENDBRANCH  11  12
ENDBRANCH  10  11
ENDBRANCH   3  10
BRANCH   6  20
HETATM   20  C13 UNL     1      -2.210   0.434   0.575  1.00  0.00     0.004 C 
HETATM   21  C14 UNL     1      -3.481   0.163   0.789  1.00  0.00    -0.002 C 
BRANCH  21  22
HETATM   22  C15 UNL     1      -4.505   1.082   0.250  1.00  0.00     0.002 A 
HETATM   23  C16 UNL     1      -4.084   2.203  -0.472  1.00  0.00     0.000 A 
HETATM   24  C17 UNL     1      -5.006   3.092  -0.978  1.00  0.00     0.002 A 
HETATM   25  C18 UNL     1      -6.374   2.900  -0.784  1.00  0.00     0.030 A 
HETATM   26  C19 UNL     1      -6.800   1.788  -0.068  1.00  0.00     0.140 A 
HETATM   27  F1  UNL     1      -8.123   1.571   0.142  1.00  0.00    -0.204 F 
HETATM   28  C20 UNL     1      -5.846   0.915   0.425  1.00  0.00     0.030 A 
ENDBRANCH  21  22
ENDBRANCH   6  20
BRANCH   7  29
HETATM   29  C21 UNL     1      -1.593  -2.753   0.513  1.00  0.00     0.063 A 
HETATM   30  C22 UNL     1      -2.156  -3.431  -0.551  1.00  0.00     0.017 A 
HETATM   31  C23 UNL     1      -2.906  -4.576  -0.403  1.00  0.00     0.002 A 
HETATM   32  C24 UNL     1      -3.123  -5.098   0.860  1.00  0.00     0.000 A 
HETATM   33  C25 UNL     1      -2.580  -4.451   1.934  1.00  0.00     0.002 A 
HETATM   34  C26 UNL     1      -1.827  -3.297   1.760  1.00  0.00     0.017 A 
ENDBRANCH   7  29
TORSDOF 9
