REMARK  8 active torsions:
REMARK  status: ('A' for Active; 'I' for Inactive)
REMARK    1  A    between atoms: N1_4  and  C4_5 
REMARK    2  A    between atoms: C4_5  and  C6_7 
REMARK    3  A    between atoms: C13_15  and  C14_16 
REMARK    4  A    between atoms: C14_16  and  N2_17 
REMARK       I    between atoms: N2_17  and  C16_19 
REMARK       I    between atoms: C16_19  and  N3_21 
REMARK    5  A    between atoms: N3_21  and  C17_22 
REMARK    6  A    between atoms: C17_22  and  C18_23 
REMARK    7  A    between atoms: C24_29  and  C25_30 
REMARK    8  A    between atoms: C25_30  and  N4_31 
ROOT
HETATM    1  C1  UNL     1       0.051   1.227   1.140  1.00  0.00     0.002 C 
HETATM    2  C2  UNL     1      -0.881   0.271   0.417  1.00  0.00     0.035 C 
HETATM    3  C3  UNL     1      -0.436   0.126  -0.997  1.00  0.00     0.250 C 
HETATM    4  N1  UNL     1       0.570   1.078  -1.425  1.00  0.00     0.140 N 
HETATM    5  C7  UNL     1       1.504   0.483  -2.365  1.00  0.00     0.286 C 
HETATM    6  C8  UNL     1       2.708  -0.147  -1.762  1.00  0.00     0.290 C 
HETATM    7  C9  UNL     1       2.761  -1.635  -1.928  1.00  0.00     0.038 C 
HETATM    8  C10 UNL     1       1.968  -2.358  -0.850  1.00  0.00     0.004 C 
HETATM    9  C11 UNL     1       1.225  -1.272  -0.116  1.00  0.00     0.036 C 
HETATM   10  C12 UNL     1       0.344  -1.877   0.925  1.00  0.00     0.004 C 
HETATM   11  C13 UNL     1      -0.877  -1.017   1.191  1.00  0.00     0.024 C 
HETATM   12  C24 UNL     1       2.313  -0.445   0.582  1.00  0.00     0.279 C 
HETATM   13  N6  UNL     1       3.020   0.315  -0.442  1.00  0.00     0.339 N 
ENDROOT
BRANCH  11  14
HETATM   14  C14 UNL     1      -2.166  -1.730   1.011  1.00  0.00     0.106 C 
BRANCH  14  15
HETATM   15  N2  UNL     1      -3.320  -1.013   1.451  1.00  0.00    -0.299 N 
HETATM   16  C15 UNL     1      -3.760  -1.163   2.810  1.00  0.00     0.130 C 
HETATM   17  C16 UNL     1      -4.027  -0.165   0.571  1.00  0.00     0.342 C 
HETATM   18  O2  UNL     1      -3.694   0.010  -0.627  1.00  0.00    -0.245 OA
HETATM   19  N3  UNL     1      -5.192   0.555   1.024  1.00  0.00    -0.214 NA
BRANCH  19  20
HETATM   20  C17 UNL     1      -5.904   1.423   0.101  1.00  0.00     0.157 C 
BRANCH  20  21
HETATM   21  C18 UNL     1      -6.682   0.564  -0.799  1.00  0.00     0.002 A 
HETATM   22  C19 UNL     1      -6.105   0.135  -1.991  1.00  0.00    -0.002 A 
HETATM   23  C20 UNL     1      -6.795  -0.675  -2.874  1.00  0.00    -0.000 A 
HETATM   24  C21 UNL     1      -8.073  -1.067  -2.575  1.00  0.00    -0.000 A 
HETATM   25  C22 UNL     1      -8.680  -0.666  -1.408  1.00  0.00    -0.000 A 
HETATM   26  C23 UNL     1      -7.960   0.146  -0.545  1.00  0.00    -0.002 A 
ENDBRANCH  20  21
ENDBRANCH  19  20
ENDBRANCH  14  15
ENDBRANCH  11  14
BRANCH   4  27
HETATM   27  C4  UNL     1      -0.015   2.286  -1.975  1.00  0.00     0.252 C 
HETATM   28  C5  UNL     1      -0.833   2.981  -0.931  1.00  0.00     0.038 C 
BRANCH  27  29
HETATM   29  C6  UNL     1      -0.876   2.044  -3.185  1.00  0.00     0.215 C 
HETATM   30  O1  UNL     1      -1.915   1.198  -2.844  1.00  0.00    -0.219 OA
ENDBRANCH  27  29
ENDBRANCH   4  27
BRANCH  12  31
HETATM   31  C25 UNL     1       3.325  -1.471   1.111  1.00  0.00     0.147 C 
BRANCH  31  32
HETATM   32  N4  UNL     1       4.392  -0.723   1.792  1.00  0.00    -0.277 N 
HETATM   33  C26 UNL     1       4.460  -0.364   3.087  1.00  0.00     0.350 A 
HETATM   34  O3  UNL     1       3.546  -0.650   3.934  1.00  0.00    -0.244 OA
HETATM   35  N5  UNL     1       5.603   0.313   3.314  1.00  0.00    -0.191 NA
HETATM   36  C27 UNL     1       6.304   0.404   2.149  1.00  0.00     0.102 A 
HETATM   37  C28 UNL     1       7.512   0.977   1.812  1.00  0.00     0.021 A 
HETATM   38  C32 UNL     1       5.520  -0.253   1.219  1.00  0.00     0.082 A 
HETATM   39  C29 UNL     1       7.946   0.890   0.509  1.00  0.00     0.002 A 
HETATM   40  C30 UNL     1       7.163   0.235  -0.415  1.00  0.00     0.002 A 
HETATM   41  C31 UNL     1       5.956  -0.342  -0.097  1.00  0.00     0.019 A 
ENDBRANCH  31  32
ENDBRANCH  12  31
TORSDOF 8
