REMARK  12 active torsions:
REMARK  status: ('A' for Active; 'I' for Inactive)
REMARK    1  A    between atoms: C3_3  and  C4_4 
REMARK    2  A    between atoms: C9_9  and  C10_10 
REMARK    3  A    between atoms: C10_10  and  C11_11 
REMARK    4  A    between atoms: C11_11  and  C12_12 
REMARK    5  A    between atoms: N1_16  and  N2_17 
REMARK       I    between atoms: N2_17  and  C16_18 
REMARK    6  A    between atoms: C16_18  and  C17_20 
REMARK    7  A    between atoms: C17_20  and  C18_21 
REMARK    8  A    between atoms: C17_20  and  N4_27 
REMARK    9  A    between atoms: C18_21  and  N3_22 
REMARK   10  A    between atoms: N4_27  and  C23_28 
REMARK   11  A    between atoms: N4_27  and  C30_35 
REMARK   12  A    between atoms: C23_28  and  C24_29 
ROOT
HETATM    1  N2  UNL     1       0.360   0.691  -0.163  1.00  0.00    -0.105 NA
HETATM    2  C16 UNL     1       1.010   0.825   1.124  1.00  0.00     0.310 C 
HETATM    3  O1  UNL     1       0.398   1.349   2.081  1.00  0.00    -0.262 OA
ENDROOT
BRANCH   1   4
HETATM    4  N1  UNL     1      -0.896   1.125  -0.327  1.00  0.00    -0.149 NA
HETATM    5  C10 UNL     1      -1.966   0.638  -0.795  1.00  0.00     0.081 C 
BRANCH   5   6
HETATM    6  C9  UNL     1      -3.131   1.541  -0.754  1.00  0.00     0.015 A 
HETATM    7  C4  UNL     1      -4.366   1.181  -1.138  1.00  0.00     0.002 A 
HETATM    8  C5  UNL     1      -5.426   2.134  -1.179  1.00  0.00     0.000 A 
HETATM    9  C6  UNL     1      -5.183   3.430  -0.820  1.00  0.00     0.000 A 
HETATM   10  C7  UNL     1      -3.932   3.819  -0.421  1.00  0.00     0.000 A 
HETATM   11  C8  UNL     1      -2.927   2.881  -0.392  1.00  0.00     0.001 A 
BRANCH   7  12
HETATM   12  C3  UNL     1      -4.709  -0.184  -1.514  1.00  0.00     0.008 C 
HETATM   13  C2  UNL     1      -5.203  -0.392  -2.740  1.00  0.00    -0.043 C 
HETATM   14  C1  UNL     1      -5.413   0.704  -3.722  1.00  0.00     0.026 C 
HETATM   15  C39 UNL     1      -5.566  -1.766  -3.153  1.00  0.00     0.022 C 
HETATM   16  C38 UNL     1      -4.640  -2.754  -2.529  1.00  0.00     0.011 C 
HETATM   17  C37 UNL     1      -4.656  -2.717  -1.038  1.00  0.00     0.049 C 
HETATM   18  C36 UNL     1      -4.614  -1.289  -0.569  1.00  0.00     0.088 C 
HETATM   19  N5  UNL     1      -4.507  -1.113   0.712  1.00  0.00    -0.101 NA
HETATM   20  O2  UNL     1      -4.484   0.171   1.191  1.00  0.00    -0.061 OA
ENDBRANCH   7  12
ENDBRANCH   5   6
BRANCH   5  21
HETATM   21  C11 UNL     1      -2.061  -0.671  -1.395  1.00  0.00     0.048 C 
BRANCH  21  22
HETATM   22  C12 UNL     1      -0.917  -1.580  -1.435  1.00  0.00     0.006 C 
HETATM   23  C13 UNL     1      -0.391  -1.955  -0.071  1.00  0.00     0.000 C 
HETATM   24  C14 UNL     1       0.186  -0.976  -2.317  1.00  0.00     0.000 C 
HETATM   25  C15 UNL     1      -1.275  -2.896  -2.171  1.00  0.00     0.000 C 
ENDBRANCH  21  22
ENDBRANCH   5  21
ENDBRANCH   1   4
BRANCH   2  26
HETATM   26  C17 UNL     1       2.363   0.340   1.255  1.00  0.00     0.120 C 
BRANCH  26  27
HETATM   27  C18 UNL     1       3.053   0.445   2.538  1.00  0.00     0.155 C 
BRANCH  27  28
HETATM   28  N3  UNL     1       2.340  -0.289   3.567  1.00  0.00    -0.319 N 
HETATM   29  C19 UNL     1       2.483  -1.565   3.927  1.00  0.00     0.076 A 
HETATM   30  C20 UNL     1       1.635  -1.914   4.946  1.00  0.00     0.020 A 
HETATM   31  C21 UNL     1       0.911  -0.779   5.246  1.00  0.00     0.020 A 
HETATM   32  C22 UNL     1       1.362   0.200   4.388  1.00  0.00     0.076 A 
ENDBRANCH  27  28
ENDBRANCH  26  27
BRANCH  26  33
HETATM   33  N4  UNL     1       3.055  -0.083   0.108  1.00  0.00    -0.321 N 
BRANCH  33  34
HETATM   34  C23 UNL     1       3.354   0.919  -0.928  1.00  0.00     0.133 C 
BRANCH  34  35
HETATM   35  C24 UNL     1       4.200   1.941  -0.222  1.00  0.00     0.000 A 
HETATM   36  C25 UNL     1       3.686   3.086   0.341  1.00  0.00    -0.002 A 
HETATM   37  C26 UNL     1       4.553   3.952   0.968  1.00  0.00    -0.000 A 
HETATM   38  C27 UNL     1       5.905   3.719   1.053  1.00  0.00    -0.000 A 
HETATM   39  C28 UNL     1       6.392   2.558   0.477  1.00  0.00    -0.000 A 
HETATM   40  C29 UNL     1       5.548   1.683  -0.151  1.00  0.00    -0.002 A 
ENDBRANCH  34  35
ENDBRANCH  33  34
BRANCH  33  41
HETATM   41  C30 UNL     1       3.500  -1.419  -0.168  1.00  0.00     0.060 A 
HETATM   42  C31 UNL     1       3.233  -2.421   0.747  1.00  0.00     0.017 A 
HETATM   43  C32 UNL     1       3.640  -3.717   0.519  1.00  0.00     0.002 A 
HETATM   44  C33 UNL     1       4.323  -4.053  -0.621  1.00  0.00     0.000 A 
HETATM   45  C34 UNL     1       4.590  -3.049  -1.535  1.00  0.00     0.002 A 
HETATM   46  C35 UNL     1       4.181  -1.750  -1.305  1.00  0.00     0.017 A 
ENDBRANCH  33  41
ENDBRANCH  26  33
ENDBRANCH   2  26
TORSDOF 12
