REMARK  14 active torsions:
REMARK  status: ('A' for Active; 'I' for Inactive)
REMARK    1  A    between atoms: C2_2  and  C3_3 
REMARK    2  A    between atoms: C3_3  and  C5_5 
REMARK    3  A    between atoms: C5_5  and  N1_6 
REMARK    4  A    between atoms: C5_5  and  C20_27 
REMARK       I    between atoms: N1_6  and  C6_7 
REMARK    5  A    between atoms: C6_7  and  C7_9 
REMARK    6  A    between atoms: C9_11  and  C10_12 
REMARK    7  A    between atoms: C10_12  and  C11_14 
REMARK    8  A    between atoms: C11_14  and  O3_15 
REMARK    9  A    between atoms: O3_15  and  C12_16 
REMARK       I    between atoms: C20_27  and  N4_29 
REMARK   10  A    between atoms: N4_29  and  C21_30 
REMARK   11  A    between atoms: C21_30  and  C22_31 
REMARK   12  A    between atoms: C21_30  and  C29_38 
REMARK   13  A    between atoms: C22_31  and  C23_32 
REMARK       I    between atoms: C29_38  and  N5_40 
REMARK   14  A    between atoms: N5_40  and  C30_41 
ROOT
HETATM    1  C5  UNL     1      -0.434  -0.117   0.315  1.00  0.00     0.134 C 
ENDROOT
BRANCH   1   2
HETATM    2  C3  UNL     1      -0.226  -1.521   0.666  1.00  0.00    -0.021 C 
HETATM    3  C4  UNL     1      -0.410  -2.532  -0.404  1.00  0.00     0.028 C 
BRANCH   2   4
HETATM    4  C2  UNL     1       0.880  -1.816   1.599  1.00  0.00     0.024 C 
HETATM    5  C1  UNL     1       0.641  -3.130   2.289  1.00  0.00     0.005 C 
ENDBRANCH   2   4
ENDBRANCH   1   2
BRANCH   1   6
HETATM    6  N1  UNL     1       0.618   0.585  -0.304  1.00  0.00    -0.207 NA
HETATM    7  C6  UNL     1       1.414   0.151  -1.378  1.00  0.00     0.265 C 
HETATM    8  O1  UNL     1       1.224  -0.976  -1.891  1.00  0.00    -0.270 OA
BRANCH   7   9
HETATM    9  C7  UNL     1       2.485   1.024  -1.912  1.00  0.00     0.169 C 
HETATM   10  C8  UNL     1       3.490   1.450  -0.895  1.00  0.00     0.065 C 
HETATM   11  C9  UNL     1       4.392   0.349  -0.565  1.00  0.00     0.092 C 
HETATM   12  N2  UNL     1       4.646  -0.628  -1.353  1.00  0.00    -0.151 NA
HETATM   13  N3  UNL     1       4.084  -0.755  -2.630  1.00  0.00    -0.110 NA
HETATM   14  C19 UNL     1       3.182   0.315  -2.996  1.00  0.00     0.282 C 
HETATM   15  O4  UNL     1       2.999   0.628  -4.180  1.00  0.00    -0.268 OA
BRANCH  11  16
HETATM   16  C10 UNL     1       5.060   0.350   0.767  1.00  0.00     0.220 C 
HETATM   17  O2  UNL     1       4.066   0.286   1.737  1.00  0.00    -0.214 OA
BRANCH  16  18
HETATM   18  C11 UNL     1       5.967  -0.843   0.960  1.00  0.00     0.188 C 
BRANCH  18  19
HETATM   19  O3  UNL     1       6.965  -0.745  -0.043  1.00  0.00    -0.328 OA
BRANCH  19  20
HETATM   20  C12 UNL     1       7.803   0.363  -0.107  1.00  0.00     0.090 A 
HETATM   21  C13 UNL     1       7.707   1.400   0.784  1.00  0.00     0.024 A 
HETATM   22  C14 UNL     1       8.525   2.499   0.736  1.00  0.00     0.002 A 
HETATM   23  C15 UNL     1       9.484   2.582  -0.238  1.00  0.00    -0.000 A 
HETATM   24  C16 UNL     1       9.601   1.556  -1.143  1.00  0.00    -0.002 A 
HETATM   25  C17 UNL     1       8.772   0.452  -1.086  1.00  0.00     0.001 A 
HETATM   26  C18 UNL     1       8.883  -0.670  -2.049  1.00  0.00     0.033 C 
ENDBRANCH  19  20
ENDBRANCH  18  19
ENDBRANCH  16  18
ENDBRANCH  11  16
ENDBRANCH   7   9
ENDBRANCH   1   6
BRANCH   1  27
HETATM   27  C20 UNL     1      -1.748   0.194  -0.280  1.00  0.00     0.296 C 
HETATM   28  O5  UNL     1      -1.824   1.035  -1.244  1.00  0.00    -0.264 OA
HETATM   29  N4  UNL     1      -2.970  -0.366   0.126  1.00  0.00    -0.206 NA
BRANCH  29  30
HETATM   30  C21 UNL     1      -4.244  -0.077  -0.436  1.00  0.00     0.124 C 
BRANCH  30  31
HETATM   31  C22 UNL     1      -4.590   1.360  -0.580  1.00  0.00     0.077 C 
BRANCH  31  32
HETATM   32  C23 UNL     1      -4.608   2.125   0.696  1.00  0.00    -0.016 A 
HETATM   33  C24 UNL     1      -5.723   2.266   1.472  1.00  0.00    -0.004 A 
HETATM   34  C25 UNL     1      -5.662   2.987   2.637  1.00  0.00    -0.000 A 
HETATM   35  C26 UNL     1      -4.485   3.585   3.059  1.00  0.00    -0.000 A 
HETATM   36  C27 UNL     1      -3.359   3.424   2.247  1.00  0.00    -0.000 A 
HETATM   37  C28 UNL     1      -3.430   2.703   1.083  1.00  0.00    -0.004 A 
ENDBRANCH  31  32
ENDBRANCH  30  31
BRANCH  30  38
HETATM   38  C29 UNL     1      -5.317  -0.971  -0.016  1.00  0.00     0.293 C 
HETATM   39  O6  UNL     1      -5.046  -1.918   0.777  1.00  0.00    -0.264 OA
HETATM   40  N5  UNL     1      -6.660  -0.867  -0.426  1.00  0.00    -0.207 NA
BRANCH  40  41
HETATM   41  C30 UNL     1      -7.660  -1.766   0.014  1.00  0.00     0.085 A 
HETATM   42  C31 UNL     1      -7.414  -2.835   0.845  1.00  0.00     0.019 A 
HETATM   43  C32 UNL     1      -8.425  -3.702   1.258  1.00  0.00     0.002 A 
HETATM   44  C33 UNL     1      -9.719  -3.462   0.804  1.00  0.00     0.000 A 
HETATM   45  C34 UNL     1      -9.985  -2.401  -0.026  1.00  0.00     0.002 A 
HETATM   46  C35 UNL     1      -8.950  -1.570  -0.407  1.00  0.00     0.019 A 
ENDBRANCH  40  41
ENDBRANCH  30  38
ENDBRANCH  29  30
ENDBRANCH   1  27
TORSDOF 14
