REMARK  3 active torsions:
REMARK  status: ('A' for Active; 'I' for Inactive)
REMARK    1  A    between atoms: C9_10  and  C10_11 
REMARK    2  A    between atoms: C10_11  and  C11_12 
REMARK    3  A    between atoms: C18_20  and  C19_21 
ROOT
HETATM    1  C1  UNL     1       2.540  -3.379  -0.276  1.00  0.00     0.054 C 
HETATM    2  C2  UNL     1       1.570  -2.357   0.207  1.00  0.00     0.077 C 
HETATM    3  N1  UNL     1       0.598  -2.750   0.998  1.00  0.00    -0.248 NA
HETATM    4  C3  UNL     1      -0.458  -2.006   1.603  1.00  0.00     0.082 A 
HETATM    5  C4  UNL     1      -1.021  -2.606   2.689  1.00  0.00     0.019 A 
HETATM    6  C5  UNL     1      -2.052  -2.038   3.406  1.00  0.00     0.002 A 
HETATM    7  C6  UNL     1      -2.500  -0.811   2.970  1.00  0.00     0.000 A 
HETATM    8  C7  UNL     1      -1.939  -0.198   1.877  1.00  0.00     0.003 A 
HETATM    9  C8  UNL     1      -0.906  -0.760   1.152  1.00  0.00     0.032 A 
HETATM   10  C9  UNL     1      -0.485   0.092   0.033  1.00  0.00     0.065 C 
HETATM   11  N2  UNL     1       0.896   0.040  -0.312  1.00  0.00    -0.248 NA
HETATM   12  C17 UNL     1       1.831  -1.004  -0.277  1.00  0.00     0.095 C 
HETATM   13  C18 UNL     1       3.068  -0.824  -0.700  1.00  0.00     0.020 C 
ENDROOT
BRANCH  10  14
HETATM   14  C10 UNL     1      -1.448   0.218  -1.085  1.00  0.00     0.072 C 
BRANCH  14  15
HETATM   15  C11 UNL     1      -2.767   0.805  -0.677  1.00  0.00    -0.016 A 
HETATM   16  C12 UNL     1      -3.829   0.044  -0.268  1.00  0.00    -0.004 A 
HETATM   17  C13 UNL     1      -5.013   0.601   0.098  1.00  0.00    -0.000 A 
HETATM   18  C14 UNL     1      -5.173   1.980   0.066  1.00  0.00    -0.000 A 
HETATM   19  C15 UNL     1      -4.113   2.713  -0.341  1.00  0.00    -0.000 A 
HETATM   20  C16 UNL     1      -2.903   2.183  -0.719  1.00  0.00    -0.004 A 
ENDBRANCH  14  15
ENDBRANCH  10  14
BRANCH  13  21
HETATM   21  C19 UNL     1       3.549   0.451  -1.225  1.00  0.00     0.005 A 
HETATM   22  C20 UNL     1       3.128   1.660  -0.713  1.00  0.00     0.021 A 
HETATM   23  C21 UNL     1       3.594   2.876  -1.226  1.00  0.00     0.099 A 
HETATM   24  N3  UNL     1       4.474   2.866  -2.243  1.00  0.00    -0.242 NA
HETATM   25  C22 UNL     1       4.909   1.714  -2.771  1.00  0.00     0.099 A 
HETATM   26  C23 UNL     1       4.451   0.491  -2.267  1.00  0.00     0.021 A 
ENDBRANCH  13  21
TORSDOF 3
