REMARK  7 active torsions:
REMARK  status: ('A' for Active; 'I' for Inactive)
REMARK    1  A    between atoms: C2_2  and  C3_3 
REMARK    2  A    between atoms: C5_5  and  C6_6 
REMARK    3  A    between atoms: N1_9  and  C9_10 
REMARK    4  A    between atoms: C21_22  and  C22_23 
REMARK    5  A    between atoms: C21_22  and  C29_30 
REMARK    6  A    between atoms: C22_23  and  C23_24 
REMARK    7  A    between atoms: C38_39  and  C39_40 
REMARK       I    between atoms: C39_40  and  N2_42 
ROOT
HETATM    1  C6  UNL     1       0.068  -1.142  -0.132  1.00  0.00     0.002 C 
HETATM    2  C7  UNL     1      -0.613  -2.180   0.699  1.00  0.00     0.024 C 
HETATM    3  C8  UNL     1      -1.734  -1.658   1.535  1.00  0.00     0.101 C 
HETATM    4  N1  UNL     1      -3.019  -1.817   0.890  1.00  0.00    -0.350 N 
HETATM    5  C15 UNL     1      -4.145  -1.114   1.462  1.00  0.00     0.081 C 
HETATM    6  C16 UNL     1      -5.259  -0.880   0.508  1.00  0.00     0.022 C 
HETATM    7  C17 UNL     1      -5.848   0.498   0.613  1.00  0.00     0.002 C 
HETATM    8  C18 UNL     1      -4.805   1.571   0.498  1.00  0.00     0.000 C 
HETATM    9  C19 UNL     1      -3.643   1.326   1.394  1.00  0.00     0.002 C 
HETATM   10  C20 UNL     1      -3.665   0.083   2.195  1.00  0.00     0.022 C 
HETATM   11  C21 UNL     1      -2.366   1.614   0.662  1.00  0.00     0.004 C 
HETATM   12  C33 UNL     1      -1.289   0.601   0.958  1.00  0.00     0.000 C 
HETATM   13  C34 UNL     1      -0.710   0.115  -0.330  1.00  0.00     0.000 C 
ENDROOT
BRANCH   1  14
HETATM   14  C5  UNL     1       1.489  -0.902   0.294  1.00  0.00     0.000 C 
HETATM   15  C4  UNL     1       2.212   0.109  -0.487  1.00  0.00     0.001 C 
HETATM   16  C3  UNL     1       3.230  -0.381  -1.443  1.00  0.00     0.009 A 
HETATM   17  C37 UNL     1       3.560  -1.780  -1.463  1.00  0.00     0.009 A 
HETATM   18  C38 UNL     1       4.580  -0.838  -1.032  1.00  0.00     0.079 A 
HETATM   19  C36 UNL     1       2.831  -2.719  -0.603  1.00  0.00     0.001 C 
HETATM   20  C35 UNL     1       2.237  -2.128   0.647  1.00  0.00     0.000 C 
BRANCH  16  21
HETATM   21  C2  UNL     1       3.210   0.342  -2.796  1.00  0.00     0.001 C 
HETATM   22  C1  UNL     1       3.475   1.810  -2.515  1.00  0.00     0.000 C 
ENDBRANCH  16  21
BRANCH  18  23
HETATM   23  C39 UNL     1       5.075  -0.712   0.338  1.00  0.00     0.233 C 
HETATM   24  O1  UNL     1       4.417  -0.212   1.288  1.00  0.00    -0.272 OA
HETATM   25  N2  UNL     1       6.386  -1.182   0.629  1.00  0.00    -0.316 N 
HETATM   26  C40 UNL     1       6.963  -1.096   1.975  1.00  0.00     0.140 C 
HETATM   27  C44 UNL     1       7.235  -1.777  -0.386  1.00  0.00     0.140 C 
HETATM   28  C41 UNL     1       8.443  -1.389   1.837  1.00  0.00     0.274 C 
HETATM   29  N3  UNL     1       9.038  -0.636   0.774  1.00  0.00     0.143 N 
HETATM   30  C42 UNL     1       9.157   0.770   1.042  1.00  0.00     0.286 C 
HETATM   31  C43 UNL     1       8.457  -0.895  -0.522  1.00  0.00     0.274 C 
ENDBRANCH  18  23
ENDBRANCH   1  14
BRANCH   4  32
HETATM   32  C9  UNL     1      -3.180  -2.630  -0.259  1.00  0.00     0.056 A 
HETATM   33  C10 UNL     1      -4.391  -2.794  -0.894  1.00  0.00     0.017 A 
HETATM   34  C11 UNL     1      -4.577  -3.573  -2.005  1.00  0.00     0.002 A 
HETATM   35  C12 UNL     1      -3.466  -4.230  -2.509  1.00  0.00     0.000 A 
HETATM   36  C13 UNL     1      -2.249  -4.085  -1.897  1.00  0.00     0.002 A 
HETATM   37  C14 UNL     1      -2.093  -3.294  -0.779  1.00  0.00     0.017 A 
ENDBRANCH   4  32
BRANCH  11  38
HETATM   38  C22 UNL     1      -1.883   2.996   1.124  1.00  0.00     0.026 C 
BRANCH  38  39
HETATM   39  C23 UNL     1      -2.981   3.946   0.755  1.00  0.00    -0.022 A 
HETATM   40  C24 UNL     1      -2.988   4.567  -0.474  1.00  0.00    -0.004 A 
HETATM   41  C25 UNL     1      -4.001   5.438  -0.804  1.00  0.00    -0.000 A 
HETATM   42  C26 UNL     1      -4.994   5.670   0.117  1.00  0.00    -0.000 A 
HETATM   43  C27 UNL     1      -5.010   5.063   1.353  1.00  0.00    -0.000 A 
HETATM   44  C28 UNL     1      -3.982   4.199   1.646  1.00  0.00    -0.004 A 
ENDBRANCH  38  39
ENDBRANCH  11  38
BRANCH  11  45
HETATM   45  C29 UNL     1      -2.672   1.747  -0.806  1.00  0.00     0.000 C 
HETATM   46  C30 UNL     1      -1.492   2.043  -1.706  1.00  0.00     0.000 C 
HETATM   47  C31 UNL     1      -2.061   1.043  -2.697  1.00  0.00     0.000 C 
HETATM   48  C32 UNL     1      -2.946   0.494  -1.569  1.00  0.00     0.000 C 
ENDBRANCH  11  45
TORSDOF 7
