REMARK  7 active torsions:
REMARK  status: ('A' for Active; 'I' for Inactive)
REMARK    1  A    between atoms: C2_2  and  C3_3 
REMARK    2  A    between atoms: C3_3  and  C4_4 
REMARK       I    between atoms: C4_4  and  N1_6 
REMARK    3  A    between atoms: N1_6  and  C5_7 
REMARK    4  A    between atoms: C8_10  and  C9_11 
REMARK       I    between atoms: C9_11  and  N2_13 
REMARK    5  A    between atoms: N3_16  and  C12_17 
REMARK    6  A    between atoms: C12_17  and  C13_18 
REMARK    7  A    between atoms: C13_18  and  C14_19 
ROOT
HETATM    1  C9  UNL     1       1.545   2.442   1.115  1.00  0.00     0.257 C 
HETATM    2  O2  UNL     1       1.562   3.660   1.424  1.00  0.00    -0.267 OA
HETATM    3  N2  UNL     1       0.343   1.698   1.196  1.00  0.00    -0.312 N 
HETATM    4  C10 UNL     1      -0.884   2.329   1.636  1.00  0.00     0.140 C 
HETATM    5  C11 UNL     1      -1.879   2.134   0.498  1.00  0.00     0.274 C 
HETATM    6  N3  UNL     1      -2.030   0.704   0.313  1.00  0.00     0.141 N 
HETATM    7  C21 UNL     1      -0.811   0.169  -0.204  1.00  0.00     0.274 C 
HETATM    8  C22 UNL     1       0.302   0.296   0.841  1.00  0.00     0.140 C 
ENDROOT
BRANCH   1   9
HETATM    9  C8  UNL     1       2.779   1.809   0.673  1.00  0.00     0.056 A 
HETATM   10  C7  UNL     1       2.847   0.481   0.321  1.00  0.00     0.006 A 
HETATM   11  C6  UNL     1       4.009  -0.118  -0.098  1.00  0.00     0.019 A 
HETATM   12  C5  UNL     1       5.167   0.616  -0.178  1.00  0.00     0.084 A 
HETATM   13  C24 UNL     1       5.140   1.944   0.165  1.00  0.00     0.019 A 
HETATM   14  C23 UNL     1       3.965   2.542   0.586  1.00  0.00     0.006 A 
BRANCH  12  15
HETATM   15  N1  UNL     1       6.389   0.016  -0.611  1.00  0.00    -0.212 NA
HETATM   16  C4  UNL     1       6.516  -1.347  -0.972  1.00  0.00     0.256 C 
HETATM   17  O1  UNL     1       5.516  -2.090  -0.918  1.00  0.00    -0.270 OA
BRANCH  16  18
HETATM   18  C3  UNL     1       7.803  -1.941  -1.418  1.00  0.00     0.090 C 
BRANCH  18  19
HETATM   19  C2  UNL     1       7.649  -3.415  -1.720  1.00  0.00     0.010 C 
HETATM   20  C1  UNL     1       6.620  -3.559  -2.817  1.00  0.00     0.001 C 
ENDBRANCH  18  19
ENDBRANCH  16  18
ENDBRANCH  12  15
ENDBRANCH   1   9
BRANCH   6  21
HETATM   21  C12 UNL     1      -2.333   0.131   1.612  1.00  0.00     0.255 C 
BRANCH  21  22
HETATM   22  C13 UNL     1      -3.737   0.639   1.975  1.00  0.00     0.062 C 
BRANCH  22  23
HETATM   23  C14 UNL     1      -4.715   0.195   0.944  1.00  0.00    -0.018 A 
HETATM   24  C15 UNL     1      -4.979   0.989  -0.168  1.00  0.00    -0.002 A 
HETATM   25  C16 UNL     1      -5.877   0.596  -1.138  1.00  0.00     0.026 A 
HETATM   26  C17 UNL     1      -6.551  -0.604  -1.043  1.00  0.00     0.119 A 
HETATM   27  C18 UNL     1      -6.302  -1.405   0.051  1.00  0.00     0.119 A 
HETATM   28  O4  UNL     1      -7.496  -1.241  -1.861  1.00  0.00    -0.300 OA
HETATM   29  C19 UNL     1      -5.392  -1.002   1.030  1.00  0.00     0.022 A 
HETATM   30  O3  UNL     1      -7.101  -2.529  -0.108  1.00  0.00    -0.300 OA
HETATM   31  C20 UNL     1      -8.067  -2.325  -1.128  1.00  0.00     0.304 C 
ENDBRANCH  22  23
ENDBRANCH  21  22
ENDBRANCH   6  21
TORSDOF 7
