REMARK  11 active torsions:
REMARK  status: ('A' for Active; 'I' for Inactive)
REMARK    1  A    between atoms: C2_2  and  N1_5 
REMARK       I    between atoms: N1_5  and  C5_6 
REMARK    2  A    between atoms: C5_6  and  C6_8 
REMARK    3  A    between atoms: C6_8  and  C7_9 
REMARK    4  A    between atoms: C10_12  and  C11_13 
REMARK    5  A    between atoms: C11_13  and  N2_14 
REMARK    6  A    between atoms: N2_14  and  C12_15 
REMARK    7  A    between atoms: C12_15  and  O2_17 
REMARK    8  A    between atoms: O2_17  and  C13_18 
REMARK    9  A    between atoms: C13_18  and  C14_19 
REMARK       I    between atoms: C14_19  and  N3_21 
REMARK   10  A    between atoms: N3_21  and  C15_22 
REMARK   11  A    between atoms: C20_27  and  C21_28 
ROOT
HETATM    1  N2  UNL     1       0.207  -1.447   1.291  1.00  0.00    -0.234 NA
ENDROOT
BRANCH   1   2
HETATM    2  C11 UNL     1      -0.401  -1.361  -0.018  1.00  0.00     0.155 C 
BRANCH   2   3
HETATM    3  C10 UNL     1      -1.606  -0.509   0.045  1.00  0.00     0.002 A 
HETATM    4  C9  UNL     1      -2.346  -0.289  -1.093  1.00  0.00    -0.003 A 
HETATM    5  C8  UNL     1      -3.488   0.516  -1.044  1.00  0.00    -0.004 A 
HETATM    6  C7  UNL     1      -3.877   1.092   0.152  1.00  0.00    -0.013 A 
HETATM    7  C23 UNL     1      -3.114   0.849   1.260  1.00  0.00    -0.004 A 
HETATM    8  C22 UNL     1      -1.972   0.050   1.234  1.00  0.00    -0.003 A 
BRANCH   6   9
HETATM    9  C6  UNL     1      -5.085   1.951   0.232  1.00  0.00     0.116 C 
BRANCH   9  10
HETATM   10  C5  UNL     1      -6.278   1.134   0.546  1.00  0.00     0.256 C 
HETATM   11  N1  UNL     1      -7.546   1.720   0.675  1.00  0.00    -0.242 NA
HETATM   12  O1  UNL     1      -6.150  -0.097   0.699  1.00  0.00    -0.270 OA
BRANCH  11  13
HETATM   13  C2  UNL     1      -8.730   0.913   0.986  1.00  0.00     0.088 C 
HETATM   14  C1  UNL     1      -9.898   1.861   1.047  1.00  0.00     0.025 C 
HETATM   15  C3  UNL     1      -8.575   0.234   2.321  1.00  0.00     0.025 C 
HETATM   16  C4  UNL     1      -8.912  -0.134  -0.116  1.00  0.00     0.025 C 
ENDBRANCH  11  13
ENDBRANCH   9  10
ENDBRANCH   6   9
ENDBRANCH   2   3
ENDBRANCH   1   2
BRANCH   1  17
HETATM   17  C12 UNL     1       1.383  -2.223   1.444  1.00  0.00     0.234 C 
HETATM   18  S1  UNL     1       2.100  -2.344   2.906  1.00  0.00    -0.031 SA
BRANCH  17  19
HETATM   19  O2  UNL     1       1.937  -2.878   0.387  1.00  0.00    -0.296 OA
BRANCH  19  20
HETATM   20  C13 UNL     1       2.538  -2.285  -0.731  1.00  0.00     0.240 C 
BRANCH  20  21
HETATM   21  C14 UNL     1       3.682  -1.463  -0.259  1.00  0.00     0.286 C 
HETATM   22  O3  UNL     1       3.972  -1.384   0.962  1.00  0.00    -0.267 OA
HETATM   23  N3  UNL     1       4.512  -0.720  -1.148  1.00  0.00    -0.209 NA
BRANCH  23  24
HETATM   24  C15 UNL     1       5.602   0.066  -0.717  1.00  0.00     0.090 A 
HETATM   25  C16 UNL     1       5.898   0.135   0.624  1.00  0.00     0.019 A 
HETATM   26  C17 UNL     1       6.969   0.902   1.085  1.00  0.00     0.002 A 
HETATM   27  C18 UNL     1       7.731   1.596   0.163  1.00  0.00     0.000 A 
HETATM   28  C19 UNL     1       7.417   1.515  -1.194  1.00  0.00     0.008 A 
HETATM   29  C20 UNL     1       6.350   0.748  -1.638  1.00  0.00     0.082 A 
BRANCH  29  30
HETATM   30  C21 UNL     1       5.987   0.635  -3.036  1.00  0.00     0.212 C 
HETATM   31  O4  UNL     1       5.012  -0.073  -3.383  1.00  0.00    -0.644 OA
HETATM   32  O5  UNL     1       6.683   1.289  -4.052  1.00  0.00    -0.644 OA
ENDBRANCH  29  30
ENDBRANCH  23  24
ENDBRANCH  20  21
ENDBRANCH  19  20
ENDBRANCH  17  19
ENDBRANCH   1  17
TORSDOF 11
