REMARK  8 active torsions:
REMARK  status: ('A' for Active; 'I' for Inactive)
REMARK    1  A    between atoms: C2_2  and  C25_29 
REMARK    2  A    between atoms: C3_3  and  C4_4 
REMARK    3  A    between atoms: C3_3  and  C19_23 
REMARK    4  A    between atoms: C4_4  and  C5_6 
REMARK    5  A    between atoms: C8_9  and  N1_10 
REMARK       I    between atoms: N1_10  and  C9_11 
REMARK    6  A    between atoms: C9_11  and  O3_13 
REMARK    7  A    between atoms: O3_13  and  C10_14 
REMARK    8  A    between atoms: C10_14  and  C11_15 
ROOT
HETATM    1  C5  UNL     1      -0.837   0.108  -0.088  1.00  0.00     0.039 A 
HETATM    2  C6  UNL     1      -0.639   1.442   0.102  1.00  0.00     0.005 A 
HETATM    3  C7  UNL     1       0.571   2.046   0.000  1.00  0.00     0.019 A 
HETATM    4  C8  UNL     1       1.710   1.333  -0.311  1.00  0.00     0.087 A 
HETATM    5  C17 UNL     1       1.563  -0.016  -0.513  1.00  0.00     0.019 A 
HETATM    6  C18 UNL     1       0.332  -0.614  -0.406  1.00  0.00     0.005 A 
ENDROOT
BRANCH   1   7
HETATM    7  C4  UNL     1      -2.099  -0.594  -0.002  1.00  0.00     0.195 C 
HETATM    8  O1  UNL     1      -2.075  -1.861  -0.222  1.00  0.00    -0.287 OA
BRANCH   7   9
HETATM    9  C3  UNL     1      -3.353   0.015   0.301  1.00  0.00     0.035 C 
HETATM   10  C2  UNL     1      -4.468  -0.706   0.351  1.00  0.00    -0.019 C 
HETATM   11  C1  UNL     1      -5.773   0.027   0.673  1.00  0.00     0.031 C 
BRANCH  10  12
HETATM   12  C25 UNL     1      -4.596  -2.130   0.218  1.00  0.00    -0.004 A 
HETATM   13  C26 UNL     1      -3.937  -3.099   0.919  1.00  0.00    -0.000 A 
HETATM   14  C27 UNL     1      -4.097  -4.447   0.751  1.00  0.00    -0.000 A 
HETATM   15  C28 UNL     1      -4.995  -4.880  -0.203  1.00  0.00    -0.000 A 
HETATM   16  C29 UNL     1      -5.684  -3.959  -0.938  1.00  0.00    -0.000 A 
HETATM   17  C30 UNL     1      -5.505  -2.611  -0.748  1.00  0.00    -0.000 A 
ENDBRANCH  10  12
BRANCH   9  18
HETATM   18  C19 UNL     1      -3.554   1.458   0.576  1.00  0.00     0.003 A 
HETATM   19  C20 UNL     1      -2.820   2.155   1.483  1.00  0.00     0.000 A 
HETATM   20  C21 UNL     1      -3.026   3.509   1.718  1.00  0.00     0.000 A 
HETATM   21  C22 UNL     1      -3.993   4.198   1.029  1.00  0.00     0.000 A 
HETATM   22  C23 UNL     1      -4.751   3.497   0.098  1.00  0.00     0.000 A 
HETATM   23  C24 UNL     1      -4.534   2.147  -0.124  1.00  0.00     0.000 A 
ENDBRANCH   9  18
ENDBRANCH   7   9
ENDBRANCH   1   7
BRANCH   4  24
HETATM   24  N1  UNL     1       2.934   2.018  -0.389  1.00  0.00    -0.186 NA
HETATM   25  C9  UNL     1       4.144   1.417  -0.813  1.00  0.00     0.388 C 
HETATM   26  O2  UNL     1       4.121   0.204  -1.143  1.00  0.00    -0.236 OA
BRANCH  25  27
HETATM   27  O3  UNL     1       5.342   2.119  -0.873  1.00  0.00    -0.279 OA
BRANCH  27  28
HETATM   28  C10 UNL     1       6.539   1.518  -1.296  1.00  0.00     0.180 C 
BRANCH  28  29
HETATM   29  C11 UNL     1       6.899   0.354  -0.405  1.00  0.00     0.008 A 
HETATM   30  C12 UNL     1       6.159   0.050   0.710  1.00  0.00    -0.002 A 
HETATM   31  C13 UNL     1       6.505  -1.010   1.492  1.00  0.00    -0.000 A 
HETATM   32  C14 UNL     1       7.610  -1.820   1.197  1.00  0.00    -0.000 A 
HETATM   33  C15 UNL     1       8.327  -1.470   0.056  1.00  0.00    -0.000 A 
HETATM   34  C16 UNL     1       7.980  -0.399  -0.737  1.00  0.00    -0.002 A 
ENDBRANCH  28  29
ENDBRANCH  27  28
ENDBRANCH  25  27
ENDBRANCH   4  24
TORSDOF 8
