REMARK  15 active torsions:
REMARK  status: ('A' for Active; 'I' for Inactive)
REMARK    1  A    between atoms: C2_2  and  O1_3 
REMARK    2  A    between atoms: O1_3  and  C3_4 
REMARK    3  A    between atoms: C3_4  and  C4_6 
REMARK    4  A    between atoms: C4_6  and  S1_7 
REMARK    5  A    between atoms: S1_7  and  C5_8 
REMARK    6  A    between atoms: C5_8  and  C6_9 
REMARK    7  A    between atoms: C6_9  and  C7_10 
REMARK    8  A    between atoms: C8_11  and  C9_12 
REMARK    9  A    between atoms: C9_12  and  C10_13 
REMARK   10  A    between atoms: C10_13  and  C11_14 
REMARK   11  A    between atoms: C12_15  and  C13_16 
REMARK   12  A    between atoms: C13_16  and  C14_17 
REMARK   13  A    between atoms: C14_17  and  C15_18 
REMARK   14  A    between atoms: C17_20  and  C18_21 
REMARK   15  A    between atoms: C19_22  and  C20_23 
REMARK       I    between atoms: C20_23  and  N1_25 
ROOT
HETATM    1  C13 UNL     1      -0.615   0.336  -1.368  1.00  0.00     0.030 C 
ENDROOT
BRANCH   1   2
HETATM    2  C12 UNL     1       0.312   0.611  -2.487  1.00  0.00    -0.030 C 
HETATM    3  C11 UNL     1       1.568   0.196  -2.387  1.00  0.00    -0.030 C 
BRANCH   3   4
HETATM    4  C10 UNL     1       2.497   0.481  -3.529  1.00  0.00     0.030 C 
BRANCH   4   5
HETATM    5  C9  UNL     1       2.994  -0.860  -4.044  1.00  0.00     0.030 C 
BRANCH   5   6
HETATM    6  C8  UNL     1       3.692  -1.517  -2.903  1.00  0.00    -0.030 C 
HETATM    7  C7  UNL     1       3.301  -2.683  -2.418  1.00  0.00    -0.030 C 
BRANCH   7   8
HETATM    8  C6  UNL     1       4.035  -3.289  -1.281  1.00  0.00     0.037 C 
BRANCH   8   9
HETATM    9  C5  UNL     1       5.166  -2.372  -0.882  1.00  0.00     0.063 C 
BRANCH   9  10
HETATM   10  S1  UNL     1       4.500  -0.741  -0.382  1.00  0.00    -0.129 SA
BRANCH  10  11
HETATM   11  C4  UNL     1       5.887   0.314   0.088  1.00  0.00     0.153 C 
BRANCH  11  12
HETATM   12  C3  UNL     1       6.546  -0.209   1.314  1.00  0.00     0.283 C 
HETATM   13  O2  UNL     1       6.094  -1.248   1.839  1.00  0.00    -0.263 OA
BRANCH  12  14
HETATM   14  O1  UNL     1       7.637   0.406   1.895  1.00  0.00    -0.301 OA
BRANCH  14  15
HETATM   15  C2  UNL     1       8.193  -0.169   3.060  1.00  0.00     0.152 C 
HETATM   16  C1  UNL     1       9.369   0.606   3.578  1.00  0.00     0.035 C 
ENDBRANCH  14  15
ENDBRANCH  12  14
ENDBRANCH  11  12
ENDBRANCH  10  11
ENDBRANCH   9  10
ENDBRANCH   8   9
ENDBRANCH   7   8
ENDBRANCH   5   6
ENDBRANCH   4   5
ENDBRANCH   3   4
ENDBRANCH   1   2
BRANCH   1  17
HETATM   17  C14 UNL     1       0.103  -0.408  -0.266  1.00  0.00     0.027 C 
BRANCH  17  18
HETATM   18  C15 UNL     1      -0.876  -0.650   0.821  1.00  0.00    -0.044 C 
HETATM   19  C16 UNL     1      -0.386  -1.380   2.027  1.00  0.00     0.026 C 
HETATM   20  C17 UNL     1      -2.129  -0.243   0.737  1.00  0.00    -0.008 C 
BRANCH  20  21
HETATM   21  C18 UNL     1      -3.098  -0.476   1.801  1.00  0.00     0.004 C 
HETATM   22  C19 UNL     1      -4.355  -0.052   1.686  1.00  0.00     0.061 C 
BRANCH  22  23
HETATM   23  C20 UNL     1      -4.791   0.661   0.477  1.00  0.00     0.265 C 
HETATM   24  O3  UNL     1      -3.979   0.869  -0.442  1.00  0.00    -0.267 OA
HETATM   25  N1  UNL     1      -6.136   1.091   0.405  1.00  0.00    -0.238 N 
HETATM   26  C21 UNL     1      -6.749   1.805  -0.695  1.00  0.00     0.204 C 
HETATM   27  C23 UNL     1      -7.157   0.918   1.376  1.00  0.00     0.355 C 
HETATM   28  C22 UNL     1      -7.901   2.536  -0.077  1.00  0.00     0.283 C 
HETATM   29  O4  UNL     1      -8.397   3.567  -0.547  1.00  0.00    -0.268 OA
HETATM   30  N2  UNL     1      -8.249   1.802   1.091  1.00  0.00    -0.155 NA
HETATM   31  O5  UNL     1      -7.074   0.099   2.330  1.00  0.00    -0.244 OA
ENDBRANCH  22  23
ENDBRANCH  20  21
ENDBRANCH  17  18
ENDBRANCH   1  17
TORSDOF 15
