REMARK  19 active torsions:
REMARK  status: ('A' for Active; 'I' for Inactive)
REMARK    1  A    between atoms: C2_2  and  C3_3 
REMARK    2  A    between atoms: C3_3  and  N1_4 
REMARK    3  A    between atoms: N1_4  and  C4_5 
REMARK       I    between atoms: N1_4  and  C12_19 
REMARK    4  A    between atoms: C4_5  and  C5_6 
REMARK       I    between atoms: C5_6  and  N2_8 
REMARK    5  A    between atoms: N2_8  and  C6_9 
REMARK    6  A    between atoms: N3_12  and  S1_13 
REMARK       I    between atoms: C12_19  and  N4_21 
REMARK    7  A    between atoms: N4_21  and  C13_22 
REMARK    8  A    between atoms: C18_27  and  N5_28 
REMARK       I    between atoms: N5_28  and  C19_29 
REMARK    9  A    between atoms: C19_29  and  C20_31 
REMARK   10  A    between atoms: C20_31  and  C21_32 
REMARK   11  A    between atoms: C20_31  and  N6_39 
REMARK   12  A    between atoms: C21_32  and  C22_33 
REMARK       I    between atoms: N6_39  and  C28_40 
REMARK   13  A    between atoms: C28_40  and  C29_42 
REMARK   14  A    between atoms: C29_42  and  C30_43 
REMARK   15  A    between atoms: C29_42  and  N7_50 
REMARK   16  A    between atoms: C30_43  and  C31_44 
REMARK       I    between atoms: N7_50  and  C37_51 
REMARK   17  A    between atoms: C37_51  and  C38_53 
REMARK   18  A    between atoms: C38_53  and  C39_54 
REMARK   19  A    between atoms: C39_54  and  C40_55 
ROOT
HETATM    1  N5  UNL     1       0.621   0.588  -1.948  1.00  0.00    -0.209 NA
HETATM    2  C19 UNL     1      -0.743   0.673  -1.558  1.00  0.00     0.279 C 
HETATM    3  O5  UNL     1      -1.428   1.616  -1.994  1.00  0.00    -0.268 OA
ENDROOT
BRANCH   2   4
HETATM    4  C20 UNL     1      -1.261  -0.376  -0.650  1.00  0.00     0.191 C 
BRANCH   4   5
HETATM    5  C21 UNL     1      -1.046  -1.722  -1.299  1.00  0.00     0.060 C 
BRANCH   5   6
HETATM    6  C22 UNL     1      -1.738  -1.841  -2.595  1.00  0.00    -0.020 A 
HETATM    7  C23 UNL     1      -1.028  -1.461  -3.730  1.00  0.00    -0.004 A 
HETATM    8  C24 UNL     1      -1.615  -1.546  -4.971  1.00  0.00    -0.000 A 
HETATM    9  C25 UNL     1      -2.904  -2.003  -5.126  1.00  0.00    -0.000 A 
HETATM   10  C26 UNL     1      -3.601  -2.380  -3.980  1.00  0.00    -0.000 A 
HETATM   11  C27 UNL     1      -3.042  -2.306  -2.730  1.00  0.00    -0.004 A 
ENDBRANCH   5   6
ENDBRANCH   4   5
BRANCH   4  12
HETATM   12  N6  UNL     1      -2.637  -0.239  -0.307  1.00  0.00    -0.228 NA
HETATM   13  C28 UNL     1      -3.114   0.048   1.000  1.00  0.00     0.275 C 
HETATM   14  O6  UNL     1      -2.275   0.189   1.909  1.00  0.00    -0.268 OA
BRANCH  13  15
HETATM   15  C29 UNL     1      -4.574   0.156   1.181  1.00  0.00     0.191 C 
BRANCH  15  16
HETATM   16  C30 UNL     1      -5.234  -1.164   0.769  1.00  0.00     0.060 C 
BRANCH  16  17
HETATM   17  C31 UNL     1      -4.709  -2.265   1.609  1.00  0.00    -0.020 A 
HETATM   18  C32 UNL     1      -3.597  -2.975   1.215  1.00  0.00    -0.004 A 
HETATM   19  C33 UNL     1      -3.110  -3.989   1.989  1.00  0.00    -0.000 A 
HETATM   20  C34 UNL     1      -3.731  -4.304   3.167  1.00  0.00    -0.000 A 
HETATM   21  C35 UNL     1      -4.844  -3.614   3.588  1.00  0.00    -0.000 A 
HETATM   22  C36 UNL     1      -5.318  -2.592   2.789  1.00  0.00    -0.004 A 
ENDBRANCH  16  17
ENDBRANCH  15  16
BRANCH  15  23
HETATM   23  N7  UNL     1      -4.966   0.446   2.531  1.00  0.00    -0.230 NA
HETATM   24  C37 UNL     1      -6.331   0.348   2.903  1.00  0.00     0.252 C 
HETATM   25  O7  UNL     1      -7.144  -0.001   1.996  1.00  0.00    -0.271 OA
BRANCH  24  26
HETATM   26  C38 UNL     1      -6.821   0.625   4.251  1.00  0.00     0.094 C 
BRANCH  26  27
HETATM   27  C39 UNL     1      -8.277   0.520   4.475  1.00  0.00     0.036 C 
BRANCH  27  28
HETATM   28  C40 UNL     1      -9.126   1.426   3.678  1.00  0.00    -0.022 A 
HETATM   29  C41 UNL     1      -9.621   1.007   2.468  1.00  0.00    -0.004 A 
HETATM   30  C42 UNL     1     -10.409   1.816   1.704  1.00  0.00    -0.000 A 
HETATM   31  C43 UNL     1     -10.711   3.077   2.162  1.00  0.00    -0.000 A 
HETATM   32  C44 UNL     1     -10.248   3.548   3.358  1.00  0.00    -0.000 A 
HETATM   33  C45 UNL     1      -9.446   2.693   4.111  1.00  0.00    -0.004 A 
ENDBRANCH  27  28
ENDBRANCH  26  27
ENDBRANCH  24  26
ENDBRANCH  15  23
ENDBRANCH  13  15
ENDBRANCH   4  12
ENDBRANCH   2   4
BRANCH   1  34
HETATM   34  C18 UNL     1       1.146   1.590  -2.823  1.00  0.00     0.102 A 
HETATM   35  C13 UNL     1       2.467   1.487  -3.198  1.00  0.00     0.104 A 
HETATM   36  C14 UNL     1       2.974   2.455  -4.039  1.00  0.00     0.021 A 
HETATM   37  C15 UNL     1       2.177   3.505  -4.497  1.00  0.00     0.002 A 
HETATM   38  C16 UNL     1       0.858   3.594  -4.114  1.00  0.00     0.002 A 
HETATM   39  C17 UNL     1       0.336   2.634  -3.273  1.00  0.00     0.021 A 
BRANCH  35  40
HETATM   40  N4  UNL     1       3.291   0.400  -2.726  1.00  0.00    -0.191 NA
HETATM   41  C12 UNL     1       4.657   0.302  -3.115  1.00  0.00     0.347 C 
HETATM   42  N1  UNL     1       5.503  -0.774  -2.659  1.00  0.00    -0.292 N 
HETATM   43  O4  UNL     1       5.090   1.199  -3.877  1.00  0.00    -0.245 OA
BRANCH  42  44
HETATM   44  C3  UNL     1       6.876  -0.760  -3.114  1.00  0.00     0.106 C 
BRANCH  44  45
HETATM   45  C2  UNL     1       7.716   0.046  -2.166  1.00  0.00     0.024 C 
HETATM   46  C1  UNL     1       7.199   1.467  -2.151  1.00  0.00     0.002 C 
ENDBRANCH  44  45
ENDBRANCH  42  44
BRANCH  42  47
HETATM   47  C4  UNL     1       4.968  -1.821  -1.826  1.00  0.00     0.196 C 
BRANCH  47  48
HETATM   48  C5  UNL     1       5.073  -1.502  -0.405  1.00  0.00     0.274 C 
HETATM   49  O1  UNL     1       4.648  -2.324   0.479  1.00  0.00    -0.268 OA
HETATM   50  N2  UNL     1       5.627  -0.317   0.058  1.00  0.00    -0.238 NA
BRANCH  50  51
HETATM   51  C6  UNL     1       5.752   0.040   1.461  1.00  0.00     0.110 C 
HETATM   52  C7  UNL     1       6.712  -1.007   2.049  1.00  0.00     0.049 C 
HETATM   53  C8  UNL     1       8.080  -0.874   1.473  1.00  0.00     0.115 C 
HETATM   54  N3  UNL     1       8.631   0.426   1.471  1.00  0.00    -0.278 N 
HETATM   55  C10 UNL     1       7.779   1.512   1.177  1.00  0.00     0.115 C 
HETATM   56  C11 UNL     1       6.363   1.395   1.668  1.00  0.00     0.049 C 
BRANCH  54  57
HETATM   57  S1  UNL     1       9.756   0.713   2.718  1.00  0.00     0.244 S 
HETATM   58  C9  UNL     1       9.093   0.566   4.343  1.00  0.00     0.163 C 
HETATM   59  O2  UNL     1      10.913  -0.252   2.532  1.00  0.00    -0.205 OA
HETATM   60  O3  UNL     1      10.341   2.102   2.591  1.00  0.00    -0.205 OA
ENDBRANCH  54  57
ENDBRANCH  50  51
ENDBRANCH  47  48
ENDBRANCH  42  47
ENDBRANCH  35  40
ENDBRANCH   1  34
TORSDOF 19
