REMARK  9 active torsions:
REMARK  status: ('A' for Active; 'I' for Inactive)
REMARK    1  A    between atoms: C2_2  and  O1_3 
REMARK    2  A    between atoms: O1_3  and  C3_4 
REMARK       I    between atoms: C3_4  and  N1_6 
REMARK    3  A    between atoms: N2_9  and  C6_10 
REMARK    4  A    between atoms: C6_10  and  C7_11 
REMARK    5  A    between atoms: C10_14  and  C11_15 
REMARK    6  A    between atoms: C14_18  and  C15_19 
REMARK    7  A    between atoms: N3_29  and  C24_30 
REMARK    8  A    between atoms: C24_30  and  N4_31 
REMARK    9  A    between atoms: N6_37  and  C27_38 
ROOT
HETATM    1  C7  UNL     1      -0.316  -0.373  -0.994  1.00  0.00     0.111 C 
HETATM    2  C8  UNL     1      -1.541  -0.171  -1.823  1.00  0.00     0.027 C 
HETATM    3  C9  UNL     1      -2.302   1.082  -1.327  1.00  0.00     0.007 C 
HETATM    4  C10 UNL     1      -1.438   2.253  -1.672  1.00  0.00     0.023 C 
HETATM    5  C21 UNL     1      -0.053   2.159  -1.145  1.00  0.00     0.016 C 
HETATM    6  C22 UNL     1       0.607   0.871  -1.086  1.00  0.00     0.103 C 
HETATM    7  C23 UNL     1       0.963   0.202  -2.373  1.00  0.00     0.237 C 
HETATM    8  O3  UNL     1       1.281   0.462  -3.535  1.00  0.00    -0.272 OA
HETATM    9  N3  UNL     1       0.770  -1.015  -1.641  1.00  0.00    -0.298 N 
ENDROOT
BRANCH   9  10
HETATM   10  C24 UNL     1       1.595  -2.213  -1.666  1.00  0.00     0.225 C 
BRANCH  10  11
HETATM   11  N4  UNL     1       2.581  -2.044  -0.560  1.00  0.00    -0.212 N 
HETATM   12  C25 UNL     1       2.356  -2.673   0.607  1.00  0.00     0.357 A 
HETATM   13  O4  UNL     1       1.414  -3.492   0.701  1.00  0.00    -0.244 OA
HETATM   14  N5  UNL     1       3.167  -2.386   1.625  1.00  0.00    -0.164 NA
HETATM   15  C26 UNL     1       4.183  -1.494   1.493  1.00  0.00     0.209 A 
HETATM   16  S1  UNL     1       5.152  -1.137   2.751  1.00  0.00    -0.038 SA
HETATM   17  N6  UNL     1       4.419  -0.852   0.316  1.00  0.00    -0.259 N 
HETATM   18  C33 UNL     1       3.586  -1.160  -0.693  1.00  0.00     0.338 A 
HETATM   19  O5  UNL     1       3.783  -0.587  -1.781  1.00  0.00    -0.246 OA
BRANCH  17  20
HETATM   20  C27 UNL     1       5.462   0.118   0.176  1.00  0.00     0.092 C 
HETATM   21  C28 UNL     1       6.292  -0.125  -1.094  1.00  0.00     0.023 C 
HETATM   22  C29 UNL     1       7.139  -1.364  -0.990  1.00  0.00     0.002 C 
HETATM   23  C30 UNL     1       7.694  -1.558   0.408  1.00  0.00     0.000 C 
HETATM   24  C31 UNL     1       7.776  -0.205   1.106  1.00  0.00     0.002 C 
HETATM   25  C32 UNL     1       6.338   0.206   1.388  1.00  0.00     0.023 C 
ENDBRANCH  17  20
ENDBRANCH  10  11
ENDBRANCH   9  10
BRANCH   1  26
HETATM   26  C6  UNL     1      -0.571  -0.724   0.454  1.00  0.00     0.066 C 
BRANCH  26  27
HETATM   27  N2  UNL     1      -1.289  -1.896   0.605  1.00  0.00    -0.345 N 
HETATM   28  C5  UNL     1      -1.537  -2.418   1.892  1.00  0.00     0.126 C 
HETATM   29  C4  UNL     1      -1.964  -3.880   1.772  1.00  0.00     0.131 C 
HETATM   30  N1  UNL     1      -3.112  -3.885   0.907  1.00  0.00    -0.293 N 
HETATM   31  C3  UNL     1      -4.319  -4.473   1.338  1.00  0.00     0.365 C 
HETATM   32  C35 UNL     1      -2.990  -3.297  -0.415  1.00  0.00     0.131 C 
HETATM   33  O2  UNL     1      -4.382  -5.000   2.477  1.00  0.00    -0.238 OA
HETATM   34  C34 UNL     1      -1.599  -2.705  -0.514  1.00  0.00     0.126 C 
BRANCH  31  35
HETATM   35  O1  UNL     1      -5.455  -4.475   0.515  1.00  0.00    -0.285 OA
BRANCH  35  36
HETATM   36  C2  UNL     1      -6.673  -5.060   0.949  1.00  0.00     0.154 C 
HETATM   37  C1  UNL     1      -7.184  -4.375   2.180  1.00  0.00     0.035 C 
ENDBRANCH  35  36
ENDBRANCH  31  35
ENDBRANCH  26  27
ENDBRANCH   1  26
BRANCH   4  38
HETATM   38  C11 UNL     1      -2.032   3.476  -1.089  1.00  0.00    -0.022 A 
HETATM   39  C12 UNL     1      -2.417   3.498   0.224  1.00  0.00    -0.005 A 
HETATM   40  C13 UNL     1      -2.924   4.658   0.808  1.00  0.00    -0.005 A 
HETATM   41  C14 UNL     1      -3.048   5.809   0.072  1.00  0.00    -0.023 A 
HETATM   42  C19 UNL     1      -2.659   5.776  -1.266  1.00  0.00    -0.005 A 
HETATM   43  C20 UNL     1      -2.149   4.607  -1.849  1.00  0.00    -0.005 A 
BRANCH  41  44
HETATM   44  C15 UNL     1      -3.537   7.094   0.601  1.00  0.00     0.019 C 
HETATM   45  C16 UNL     1      -4.946   7.340   0.130  1.00  0.00     0.004 C 
HETATM   46  C17 UNL     1      -2.682   8.192  -0.079  1.00  0.00     0.004 C 
HETATM   47  C18 UNL     1      -3.439   7.237   2.096  1.00  0.00     0.004 C 
ENDBRANCH  41  44
ENDBRANCH   4  38
TORSDOF 9
