REMARK  11 active torsions:
REMARK  status: ('A' for Active; 'I' for Inactive)
REMARK    1  A    between atoms: C2_2  and  N1_3 
REMARK    2  A    between atoms: N1_3  and  C3_4 
REMARK    3  A    between atoms: N1_3  and  C5_6 
REMARK    4  A    between atoms: C5_6  and  C6_7 
REMARK    5  A    between atoms: C7_8  and  N2_9 
REMARK    6  A    between atoms: C11_15  and  C12_16 
REMARK    7  A    between atoms: C12_16  and  C13_17 
REMARK    8  A    between atoms: C12_16  and  C19_23 
REMARK    9  A    between atoms: C24_28  and  O2_29 
REMARK   10  A    between atoms: O2_29  and  C25_30 
REMARK   11  A    between atoms: C25_30  and  C26_31 
ROOT
HETATM    1  C12 UNL     1      -0.373  -0.883   0.314  1.00  0.00     0.071 C 
ENDROOT
BRANCH   1   2
HETATM    2  C11 UNL     1       0.356  -1.909   1.095  1.00  0.00     0.019 C 
HETATM    3  C10 UNL     1       1.359  -1.605   1.904  1.00  0.00     0.144 C 
HETATM    4  N2  UNL     1       1.911  -0.309   2.171  1.00  0.00    -0.303 N 
HETATM    5  N3  UNL     1       2.095  -2.536   2.681  1.00  0.00    -0.193 NA
HETATM    6  C8  UNL     1       2.665  -0.418   3.433  1.00  0.00     0.198 C 
HETATM    7  C9  UNL     1       3.086  -1.868   3.425  1.00  0.00     0.280 C 
HETATM    8  O1  UNL     1       4.123  -2.334   3.985  1.00  0.00    -0.268 OA
BRANCH   4   9
HETATM    9  C7  UNL     1       1.766   0.844   1.380  1.00  0.00     0.075 C 
HETATM   10  C6  UNL     1       2.859   1.400   0.822  1.00  0.00     0.028 C 
BRANCH  10  11
HETATM   11  C5  UNL     1       4.200   0.837   1.016  1.00  0.00     0.278 C 
BRANCH  11  12
HETATM   12  N1  UNL     1       4.859   0.432  -0.199  1.00  0.00     0.141 N 
BRANCH  12  13
HETATM   13  C2  UNL     1       5.174   1.590  -0.971  1.00  0.00     0.251 C 
HETATM   14  C1  UNL     1       5.549   1.223  -2.410  1.00  0.00     0.037 C 
ENDBRANCH  12  13
BRANCH  12  15
HETATM   15  C3  UNL     1       5.993  -0.430   0.058  1.00  0.00     0.251 C 
HETATM   16  C4  UNL     1       5.612  -1.633   0.874  1.00  0.00     0.037 C 
ENDBRANCH  12  15
ENDBRANCH  11  12
ENDBRANCH  10  11
ENDBRANCH   4   9
ENDBRANCH   1   2
BRANCH   1  17
HETATM   17  C13 UNL     1      -0.180  -0.963  -1.137  1.00  0.00    -0.014 A 
HETATM   18  C14 UNL     1      -0.026   0.205  -1.849  1.00  0.00    -0.004 A 
HETATM   19  C15 UNL     1       0.157   0.238  -3.210  1.00  0.00    -0.000 A 
HETATM   20  C16 UNL     1       0.188  -0.942  -3.900  1.00  0.00    -0.000 A 
HETATM   21  C17 UNL     1       0.038  -2.131  -3.230  1.00  0.00    -0.000 A 
HETATM   22  C18 UNL     1      -0.147  -2.146  -1.843  1.00  0.00    -0.004 A 
ENDBRANCH   1  17
BRANCH   1  23
HETATM   23  C19 UNL     1      -1.773  -0.767   0.737  1.00  0.00     0.008 A 
HETATM   24  C20 UNL     1      -2.426  -1.844   1.274  1.00  0.00    -0.002 A 
HETATM   25  C21 UNL     1      -3.741  -1.776   1.673  1.00  0.00    -0.000 A 
HETATM   26  C22 UNL     1      -4.420  -0.602   1.530  1.00  0.00     0.002 A 
HETATM   27  C23 UNL     1      -3.796   0.502   0.993  1.00  0.00     0.024 A 
HETATM   28  C24 UNL     1      -2.453   0.416   0.591  1.00  0.00     0.091 A 
BRANCH  28  29
HETATM   29  O2  UNL     1      -1.772   1.495   0.045  1.00  0.00    -0.326 OA
BRANCH  29  30
HETATM   30  C25 UNL     1      -2.487   2.707  -0.097  1.00  0.00     0.175 C 
BRANCH  30  31
HETATM   31  C26 UNL     1      -3.641   2.432  -1.005  1.00  0.00     0.008 A 
HETATM   32  C27 UNL     1      -4.670   3.362  -1.096  1.00  0.00    -0.002 A 
HETATM   33  C28 UNL     1      -5.727   3.107  -1.941  1.00  0.00    -0.000 A 
HETATM   34  C29 UNL     1      -5.815   1.960  -2.712  1.00  0.00    -0.000 A 
HETATM   35  C30 UNL     1      -4.798   1.042  -2.622  1.00  0.00    -0.000 A 
HETATM   36  C31 UNL     1      -3.745   1.304  -1.775  1.00  0.00    -0.002 A 
ENDBRANCH  30  31
ENDBRANCH  29  30
ENDBRANCH  28  29
ENDBRANCH   1  23
TORSDOF 11
