REMARK  11 active torsions:
REMARK  status: ('A' for Active; 'I' for Inactive)
REMARK    1  A    between atoms: C2_2  and  O1_3 
REMARK    2  A    between atoms: O1_3  and  C3_4 
REMARK    3  A    between atoms: C3_4  and  C4_6 
REMARK    4  A    between atoms: C9_11  and  N1_12 
REMARK    5  A    between atoms: C11_16  and  N3_17 
REMARK    6  A    between atoms: N3_17  and  C13_19 
REMARK    7  A    between atoms: C13_19  and  C14_20 
REMARK    8  A    between atoms: C14_20  and  C15_21 
REMARK    9  A    between atoms: C15_21  and  C16_22 
REMARK   10  A    between atoms: C23_29  and  C24_30 
REMARK   11  A    between atoms: C24_30  and  C25_31 
ROOT
HETATM    1  N1  UNL     1      -1.807   0.262  -0.737  1.00  0.00    -0.281 N 
HETATM    2  C10 UNL     1      -0.859   0.875  -1.579  1.00  0.00     0.351 C 
HETATM    3  O3  UNL     1      -1.122   1.601  -2.547  1.00  0.00    -0.244 OA
HETATM    4  N2  UNL     1       0.549   0.646  -1.303  1.00  0.00    -0.179 NA
HETATM    5  C11 UNL     1       0.931  -0.515  -0.570  1.00  0.00     0.123 C 
HETATM    6  C22 UNL     1      -0.124  -1.465  -0.246  1.00  0.00     0.087 C 
HETATM    7  C23 UNL     1      -1.471  -0.868   0.075  1.00  0.00     0.102 C 
ENDROOT
BRANCH   1   8
HETATM    8  C9  UNL     1      -3.136   0.774  -0.709  1.00  0.00     0.069 A 
HETATM    9  C4  UNL     1      -3.397   1.983  -0.141  1.00  0.00     0.079 A 
HETATM   10  C5  UNL     1      -4.732   2.438  -0.166  1.00  0.00     0.007 A 
HETATM   11  C6  UNL     1      -5.752   1.714  -0.730  1.00  0.00     0.000 A 
HETATM   12  C7  UNL     1      -5.460   0.492  -1.296  1.00  0.00     0.002 A 
HETATM   13  C8  UNL     1      -4.170   0.017  -1.292  1.00  0.00     0.018 A 
BRANCH   9  14
HETATM   14  C3  UNL     1      -2.376   2.793   0.482  1.00  0.00     0.297 C 
HETATM   15  O2  UNL     1      -1.200   2.434   0.554  1.00  0.00    -0.259 OA
BRANCH  14  16
HETATM   16  O1  UNL     1      -2.692   4.051   1.041  1.00  0.00    -0.298 OA
BRANCH  16  17
HETATM   17  C2  UNL     1      -1.693   4.856   1.651  1.00  0.00     0.152 C 
HETATM   18  C1  UNL     1      -0.583   5.225   0.661  1.00  0.00     0.035 C 
ENDBRANCH  16  17
ENDBRANCH  14  16
ENDBRANCH   9  14
ENDBRANCH   1   8
BRANCH   7  19
HETATM   19  C24 UNL     1      -2.521  -1.944  -0.228  1.00  0.00     0.050 C 
BRANCH  19  20
HETATM   20  C25 UNL     1      -2.284  -3.176   0.553  1.00  0.00    -0.020 A 
HETATM   21  C26 UNL     1      -2.840  -3.440   1.786  1.00  0.00    -0.004 A 
HETATM   22  C27 UNL     1      -2.536  -4.619   2.430  1.00  0.00    -0.000 A 
HETATM   23  C28 UNL     1      -1.684  -5.580   1.900  1.00  0.00    -0.000 A 
HETATM   24  C29 UNL     1      -1.120  -5.308   0.646  1.00  0.00    -0.000 A 
HETATM   25  C30 UNL     1      -1.436  -4.126   0.021  1.00  0.00    -0.004 A 
ENDBRANCH  19  20
ENDBRANCH   7  19
BRANCH   5  26
HETATM   26  N3  UNL     1       2.053  -0.333   0.221  1.00  0.00    -0.335 N 
HETATM   27  C12 UNL     1       1.832   0.101   1.564  1.00  0.00     0.127 C 
BRANCH  26  28
HETATM   28  C13 UNL     1       3.040  -1.352   0.140  1.00  0.00     0.103 C 
BRANCH  28  29
HETATM   29  C14 UNL     1       3.716  -1.414  -1.196  1.00  0.00     0.029 C 
BRANCH  29  30
HETATM   30  C15 UNL     1       4.398  -0.169  -1.623  1.00  0.00     0.028 C 
BRANCH  30  31
HETATM   31  C16 UNL     1       5.459   0.240  -0.685  1.00  0.00    -0.022 A 
HETATM   32  C17 UNL     1       5.119   1.079   0.366  1.00  0.00    -0.004 A 
HETATM   33  C18 UNL     1       6.055   1.510   1.262  1.00  0.00    -0.000 A 
HETATM   34  C19 UNL     1       7.364   1.109   1.130  1.00  0.00    -0.000 A 
HETATM   35  C20 UNL     1       7.699   0.276   0.087  1.00  0.00    -0.000 A 
HETATM   36  C21 UNL     1       6.781  -0.170  -0.827  1.00  0.00    -0.004 A 
ENDBRANCH  30  31
ENDBRANCH  29  30
ENDBRANCH  28  29
ENDBRANCH  26  28
ENDBRANCH   5  26
TORSDOF 11
