REMARK  7 active torsions:
REMARK  status: ('A' for Active; 'I' for Inactive)
REMARK       I    between atoms: N1_2  and  C2_3 
REMARK    1  A    between atoms: N1_2  and  C19_27 
REMARK    2  A    between atoms: C2_3  and  C3_5 
REMARK    3  A    between atoms: C3_5  and  C4_6 
REMARK    4  A    between atoms: C3_5  and  N3_15 
REMARK    5  A    between atoms: C13_18  and  C14_19 
REMARK    6  A    between atoms: C14_19  and  C15_20 
REMARK    7  A    between atoms: C15_20  and  C16_21 
ROOT
HETATM    1  C3  UNL     1       0.643   0.254  -1.137  1.00  0.00     0.209 C 
ENDROOT
BRANCH   1   2
HETATM    2  C2  UNL     1      -0.540  -0.433  -0.595  1.00  0.00     0.264 C 
HETATM    3  N1  UNL     1      -1.872  -0.139  -1.016  1.00  0.00    -0.302 N 
HETATM    4  C1  UNL     1      -2.063   0.869  -2.019  1.00  0.00     0.133 C 
HETATM    5  O1  UNL     1      -0.326  -1.329   0.293  1.00  0.00    -0.270 OA
BRANCH   3   6
HETATM    6  C19 UNL     1      -2.926  -0.854  -0.436  1.00  0.00     0.024 C 
HETATM    7  C20 UNL     1      -2.513  -1.753   0.636  1.00  0.00     0.066 C 
HETATM    8  C21 UNL     1      -3.340  -1.706   1.911  1.00  0.00     0.132 C 
HETATM    9  N5  UNL     1      -4.506  -2.570   1.659  1.00  0.00    -0.271 NA
HETATM   10  C22 UNL     1      -5.362  -2.469   0.501  1.00  0.00     0.072 A 
HETATM   11  C23 UNL     1      -6.322  -3.476   0.471  1.00  0.00     0.018 A 
HETATM   12  C27 UNL     1      -5.306  -1.521  -0.506  1.00  0.00     0.001 A 
HETATM   13  C24 UNL     1      -7.189  -3.464  -0.602  1.00  0.00     0.002 A 
HETATM   14  C25 UNL     1      -7.140  -2.524  -1.609  1.00  0.00    -0.000 A 
HETATM   15  C26 UNL     1      -6.182  -1.529  -1.567  1.00  0.00    -0.002 A 
HETATM   16  C28 UNL     1      -4.307  -0.412  -0.568  1.00  0.00     0.067 C 
ENDBRANCH   3   6
ENDBRANCH   1   2
BRANCH   1  17
HETATM   17  C4  UNL     1       0.703   1.691  -0.727  1.00  0.00     0.118 A 
HETATM   18  N2  UNL     1      -0.260   2.401  -0.194  1.00  0.00    -0.241 NA
HETATM   19  C5  UNL     1      -0.058   3.648   0.120  1.00  0.00     0.088 A 
HETATM   20  C6  UNL     1      -0.991   4.532   0.703  1.00  0.00     0.020 A 
HETATM   21  C10 UNL     1       1.182   4.173  -0.128  1.00  0.00     0.048 A 
HETATM   22  C7  UNL     1      -0.631   5.808   0.976  1.00  0.00     0.002 A 
HETATM   23  C8  UNL     1       0.607   6.363   0.737  1.00  0.00     0.001 A 
HETATM   24  C9  UNL     1       1.537   5.498   0.163  1.00  0.00     0.008 A 
HETATM   25  S1  UNL     1       1.989   2.810  -0.810  1.00  0.00    -0.068 SA
ENDBRANCH   1  17
BRANCH   1  26
HETATM   26  N3  UNL     1       1.846  -0.338  -0.603  1.00  0.00    -0.325 N 
HETATM   27  C11 UNL     1       2.032  -0.372   0.830  1.00  0.00     0.103 C 
HETATM   28  C12 UNL     1       3.455  -0.060   1.131  1.00  0.00     0.025 C 
HETATM   29  C13 UNL     1       4.457  -0.991   0.484  1.00  0.00     0.010 C 
HETATM   30  C17 UNL     1       3.884  -1.730  -0.704  1.00  0.00     0.066 C 
HETATM   31  C18 UNL     1       2.859  -0.880  -1.410  1.00  0.00     0.139 C 
HETATM   32  N4  UNL     1       2.871  -0.639  -2.651  1.00  0.00    -0.134 N 
BRANCH  29  33
HETATM   33  C14 UNL     1       5.665  -0.204  -0.032  1.00  0.00     0.012 C 
BRANCH  33  34
HETATM   34  C15 UNL     1       6.608  -1.202  -0.655  1.00  0.00     0.098 C 
BRANCH  34  35
HETATM   35  C16 UNL     1       7.020  -2.176   0.369  1.00  0.00     0.185 C 
HETATM   36  O2  UNL     1       6.572  -2.094   1.532  1.00  0.00    -0.647 OA
HETATM   37  O3  UNL     1       7.905  -3.183   0.038  1.00  0.00    -0.647 OA
ENDBRANCH  34  35
ENDBRANCH  33  34
ENDBRANCH  29  33
ENDBRANCH   1  26
TORSDOF 7
