REMARK  5 active torsions:
REMARK  status: ('A' for Active; 'I' for Inactive)
REMARK    1  A    between atoms: C4_5  and  O1_6 
REMARK    2  A    between atoms: O1_6  and  C5_7 
REMARK    3  A    between atoms: C8_10  and  C9_11 
REMARK    4  A    between atoms: C9_11  and  S1_12 
REMARK    5  A    between atoms: C20_24  and  C21_25 
ROOT
HETATM    1  S1  UNL     1      -1.641   0.473   0.446  1.00  0.00    -0.047 SA
HETATM    2  N2  UNL     1      -1.528  -0.472  -0.873  1.00  0.00    -0.220 NA
HETATM    3  C10 UNL     1      -2.701  -0.643  -1.643  1.00  0.00     0.088 A 
HETATM    4  C11 UNL     1      -2.532  -1.471  -2.761  1.00  0.00     0.020 A 
HETATM    5  C12 UNL     1      -3.574  -1.741  -3.617  1.00  0.00     0.002 A 
HETATM    6  C13 UNL     1      -4.786  -1.161  -3.322  1.00  0.00     0.000 A 
HETATM    7  C14 UNL     1      -4.963  -0.347  -2.228  1.00  0.00     0.002 A 
HETATM    8  C15 UNL     1      -3.903  -0.078  -1.366  1.00  0.00     0.019 A 
HETATM    9  C16 UNL     1      -4.202   0.797  -0.237  1.00  0.00     0.008 A 
HETATM   10  C17 UNL     1      -5.476   1.332  -0.107  1.00  0.00     0.001 A 
HETATM   11  C18 UNL     1      -5.800   2.190   0.925  1.00  0.00     0.000 A 
HETATM   12  C19 UNL     1      -4.866   2.549   1.872  1.00  0.00     0.007 A 
HETATM   13  C20 UNL     1      -3.563   2.014   1.760  1.00  0.00     0.071 A 
HETATM   14  C22 UNL     1      -3.275   1.172   0.725  1.00  0.00     0.043 A 
ENDROOT
BRANCH   1  15
HETATM   15  C9  UNL     1      -0.275   0.838   1.567  1.00  0.00     0.101 C 
BRANCH  15  16
HETATM   16  C8  UNL     1       0.900   0.116   1.054  1.00  0.00    -0.010 A 
HETATM   17  C7  UNL     1       1.233  -1.168   1.421  1.00  0.00    -0.001 A 
HETATM   18  C6  UNL     1       2.346  -1.801   0.912  1.00  0.00     0.024 A 
HETATM   19  C5  UNL     1       3.147  -1.114   0.003  1.00  0.00     0.094 A 
HETATM   20  C24 UNL     1       2.812   0.165  -0.360  1.00  0.00     0.024 A 
HETATM   21  C23 UNL     1       1.709   0.770   0.154  1.00  0.00    -0.001 A 
BRANCH  19  22
HETATM   22  O1  UNL     1       4.276  -1.689  -0.545  1.00  0.00    -0.333 OA
BRANCH  22  23
HETATM   23  C4  UNL     1       5.047  -0.943  -1.460  1.00  0.00     0.125 C 
HETATM   24  C3  UNL     1       6.207  -1.817  -1.889  1.00  0.00     0.066 C 
HETATM   25  C2  UNL     1       6.856  -2.344  -0.626  1.00  0.00     0.253 C 
HETATM   26  N1  UNL     1       6.972  -1.332   0.383  1.00  0.00     0.139 N 
HETATM   27  C1  UNL     1       6.147  -1.626   1.520  1.00  0.00     0.285 C 
HETATM   28  C26 UNL     1       6.849   0.005  -0.109  1.00  0.00     0.253 C 
HETATM   29  C25 UNL     1       5.516   0.304  -0.738  1.00  0.00     0.066 C 
ENDBRANCH  22  23
ENDBRANCH  19  22
ENDBRANCH  15  16
ENDBRANCH   1  15
BRANCH  13  30
HETATM   30  C21 UNL     1      -2.609   2.276   2.808  1.00  0.00     0.211 C 
HETATM   31  O2  UNL     1      -2.507   3.448   3.267  1.00  0.00    -0.644 OA
HETATM   32  O3  UNL     1      -1.817   1.302   3.336  1.00  0.00    -0.644 OA
ENDBRANCH  13  30
TORSDOF 5
