REMARK  11 active torsions:
REMARK  status: ('A' for Active; 'I' for Inactive)
REMARK    1  A    between atoms: C2_2  and  N1_3 
REMARK       I    between atoms: N2_6  and  C5_7 
REMARK    2  A    between atoms: C5_7  and  C6_9 
REMARK    3  A    between atoms: C6_9  and  C7_10 
REMARK    4  A    between atoms: C7_10  and  C8_11 
REMARK    5  A    between atoms: C13_16  and  C14_17 
REMARK    6  A    between atoms: C14_17  and  N3_18 
REMARK       I    between atoms: N3_18  and  C15_19 
REMARK    7  A    between atoms: C15_19  and  C16_21 
REMARK    8  A    between atoms: C16_21  and  O3_22 
REMARK    9  A    between atoms: O3_22  and  C17_23 
REMARK   10  A    between atoms: C17_23  and  C18_25 
REMARK   11  A    between atoms: C26_36  and  C27_37 
ROOT
HETATM    1  N3  UNL     1      -0.030   2.540   0.666  1.00  0.00    -0.231 NA
HETATM    2  C15 UNL     1      -0.614   3.524   1.509  1.00  0.00     0.283 C 
HETATM    3  O2  UNL     1       0.188   4.193   2.227  1.00  0.00    -0.268 OA
ENDROOT
BRANCH   2   4
HETATM    4  C16 UNL     1      -2.075   3.775   1.565  1.00  0.00     0.241 C 
BRANCH   4   5
HETATM    5  O3  UNL     1      -2.727   2.879   0.724  1.00  0.00    -0.288 OA
BRANCH   5   6
HETATM    6  C17 UNL     1      -2.647   1.477   0.915  1.00  0.00     0.300 C 
HETATM    7  O4  UNL     1      -1.957   1.136   1.876  1.00  0.00    -0.259 OA
BRANCH   6   8
HETATM    8  C18 UNL     1      -3.359   0.630  -0.007  1.00  0.00     0.108 C 
HETATM    9  C19 UNL     1      -4.093   1.271  -0.949  1.00  0.00     0.139 C 
HETATM   10  O5  UNL     1      -4.028   2.646  -0.881  1.00  0.00    -0.190 OA
HETATM   11  C20 UNL     1      -4.934   0.709  -1.997  1.00  0.00     0.045 A 
HETATM   12  C21 UNL     1      -5.128   1.504  -3.096  1.00  0.00     0.004 A 
HETATM   13  C25 UNL     1      -5.579  -0.530  -1.981  1.00  0.00     0.105 A 
HETATM   14  C22 UNL     1      -5.938   1.068  -4.135  1.00  0.00     0.000 A 
HETATM   15  C23 UNL     1      -6.572  -0.149  -4.118  1.00  0.00     0.002 A 
HETATM   16  C24 UNL     1      -6.373  -0.962  -2.994  1.00  0.00     0.021 A 
HETATM   17  N4  UNL     1      -5.429  -1.454  -0.862  1.00  0.00    -0.148 NA
HETATM   18  N5  UNL     1      -4.136  -1.743  -0.292  1.00  0.00    -0.148 NA
HETATM   19  C26 UNL     1      -3.255  -0.811   0.067  1.00  0.00     0.110 C 
BRANCH  19  20
HETATM   20  C27 UNL     1      -1.990  -1.339   0.549  1.00  0.00     0.020 A 
HETATM   21  C28 UNL     1      -0.852  -0.652   0.791  1.00  0.00     0.002 A 
HETATM   22  C29 UNL     1       0.288  -1.252   1.262  1.00  0.00     0.000 A 
HETATM   23  C30 UNL     1       0.317  -2.606   1.512  1.00  0.00     0.000 A 
HETATM   24  C31 UNL     1      -0.821  -3.330   1.277  1.00  0.00     0.000 A 
HETATM   25  C32 UNL     1      -1.936  -2.710   0.810  1.00  0.00     0.002 A 
ENDBRANCH  19  20
ENDBRANCH   6   8
ENDBRANCH   5   6
ENDBRANCH   4   5
ENDBRANCH   2   4
BRANCH   1  26
HETATM   26  C14 UNL     1       1.418   2.321   0.642  1.00  0.00     0.155 C 
BRANCH  26  27
HETATM   27  C13 UNL     1       1.926   1.888   1.950  1.00  0.00    -0.002 A 
HETATM   28  C8  UNL     1       3.266   1.641   2.116  1.00  0.00    -0.024 A 
HETATM   29  C9  UNL     1       3.745   1.215   3.363  1.00  0.00    -0.004 A 
HETATM   30  C10 UNL     1       2.889   1.042   4.421  1.00  0.00    -0.000 A 
HETATM   31  C11 UNL     1       1.547   1.288   4.261  1.00  0.00    -0.000 A 
HETATM   32  C12 UNL     1       1.083   1.713   3.010  1.00  0.00    -0.003 A 
BRANCH  28  33
HETATM   33  C7  UNL     1       4.167   1.863   0.967  1.00  0.00     0.036 C 
BRANCH  33  34
HETATM   34  C6  UNL     1       3.987   0.783  -0.044  1.00  0.00     0.092 C 
BRANCH  34  35
HETATM   35  C5  UNL     1       4.314  -0.532   0.526  1.00  0.00     0.234 C 
HETATM   36  N2  UNL     1       4.135  -1.690  -0.309  1.00  0.00    -0.316 N 
HETATM   37  C4  UNL     1       4.421  -3.035   0.146  1.00  0.00     0.140 C 
HETATM   38  C33 UNL     1       3.663  -1.516  -1.645  1.00  0.00     0.140 C 
HETATM   39  C3  UNL     1       5.405  -3.625  -0.858  1.00  0.00     0.274 C 
HETATM   40  N1  UNL     1       4.967  -3.493  -2.214  1.00  0.00     0.141 N 
HETATM   41  C34 UNL     1       4.721  -2.120  -2.570  1.00  0.00     0.274 C 
HETATM   42  O1  UNL     1       4.742  -0.661   1.709  1.00  0.00    -0.272 OA
BRANCH  40  43
HETATM   43  C2  UNL     1       6.078  -3.955  -3.058  1.00  0.00     0.251 C 
HETATM   44  C1  UNL     1       7.208  -2.942  -2.909  1.00  0.00     0.037 C 
ENDBRANCH  40  43
ENDBRANCH  34  35
ENDBRANCH  33  34
ENDBRANCH  28  33
ENDBRANCH  26  27
ENDBRANCH   1  26
TORSDOF 11
