REMARK  10 active torsions:
REMARK  status: ('A' for Active; 'I' for Inactive)
REMARK    1  A    between atoms: O1_2  and  C2_3 
REMARK    2  A    between atoms: C5_6  and  C6_7 
REMARK    3  A    between atoms: C6_7  and  N2_9 
REMARK    4  A    between atoms: N2_9  and  C7_10 
REMARK    5  A    between atoms: C7_10  and  S1_12 
REMARK    6  A    between atoms: S1_12  and  C9_13 
REMARK    7  A    between atoms: C15_21  and  N5_22 
REMARK    8  A    between atoms: C17_24  and  C18_25 
REMARK    9  A    between atoms: C21_31  and  O3_32 
REMARK   10  A    between atoms: O3_32  and  C22_33 
ROOT
HETATM    1  S1  UNL     1      -0.088  -0.543  -0.594  1.00  0.00    -0.069 SA
ENDROOT
BRANCH   1   2
HETATM    2  C7  UNL     1      -0.775  -0.410   1.054  1.00  0.00     0.158 C 
HETATM    3  C8  UNL     1      -0.346   0.811   1.801  1.00  0.00     0.039 C 
BRANCH   2   4
HETATM    4  N2  UNL     1      -2.199  -0.647   1.098  1.00  0.00    -0.242 NA
BRANCH   4   5
HETATM    5  C6  UNL     1      -3.170   0.240   0.619  1.00  0.00     0.180 C 
HETATM    6  N1  UNL     1      -2.848   1.449   0.398  1.00  0.00    -0.127 N 
BRANCH   5   7
HETATM    7  C5  UNL     1      -4.525  -0.272   0.392  1.00  0.00     0.039 A 
HETATM    8  C4  UNL     1      -4.850  -1.575   0.636  1.00  0.00     0.005 A 
HETATM    9  C3  UNL     1      -6.122  -2.064   0.425  1.00  0.00     0.026 A 
HETATM   10  C2  UNL     1      -7.099  -1.232  -0.043  1.00  0.00     0.116 A 
HETATM   11  C21 UNL     1      -6.816   0.104  -0.306  1.00  0.00     0.116 A 
HETATM   12  C20 UNL     1      -5.535   0.553  -0.082  1.00  0.00     0.029 A 
BRANCH  10  13
HETATM   13  O1  UNL     1      -8.408  -1.643  -0.283  1.00  0.00    -0.326 OA
HETATM   14  C1  UNL     1      -8.843  -2.970  -0.062  1.00  0.00     0.181 C 
ENDBRANCH  10  13
BRANCH  11  15
HETATM   15  O3  UNL     1      -7.819   0.953  -0.784  1.00  0.00    -0.331 OA
BRANCH  15  16
HETATM   16  C22 UNL     1      -7.477   2.303  -1.035  1.00  0.00     0.122 A 
HETATM   17  C23 UNL     1      -8.512   3.225  -1.541  1.00  0.00     0.033 A 
HETATM   18  C24 UNL     1      -8.203   3.304  -0.106  1.00  0.00     0.033 A 
ENDBRANCH  15  16
ENDBRANCH  11  15
ENDBRANCH   5   7
ENDBRANCH   4   5
ENDBRANCH   2   4
ENDBRANCH   1   2
BRANCH   1  19
HETATM   19  C9  UNL     1       1.660  -0.233  -0.523  1.00  0.00     0.132 A 
HETATM   20  N3  UNL     1       2.314   0.927  -0.637  1.00  0.00    -0.142 NA
HETATM   21  N4  UNL     1       3.615   0.762  -0.531  1.00  0.00    -0.146 NA
HETATM   22  C10 UNL     1       3.868  -0.538  -0.339  1.00  0.00     0.122 A 
HETATM   23  C11 UNL     1       2.660  -1.194  -0.329  1.00  0.00     0.046 A 
HETATM   24  C15 UNL     1       5.066  -1.196  -0.174  1.00  0.00     0.102 A 
HETATM   25  C12 UNL     1       2.653  -2.551  -0.147  1.00  0.00     0.004 A 
HETATM   26  C13 UNL     1       3.825  -3.258   0.024  1.00  0.00     0.002 A 
HETATM   27  C14 UNL     1       5.026  -2.579   0.010  1.00  0.00     0.021 A 
BRANCH  24  28
HETATM   28  N5  UNL     1       6.318  -0.501  -0.186  1.00  0.00    -0.227 N 
HETATM   29  C16 UNL     1       6.542   0.782   0.134  1.00  0.00     0.106 A 
HETATM   30  C17 UNL     1       7.903   1.061  -0.013  1.00  0.00     0.093 A 
HETATM   31  C19 UNL     1       8.456  -0.140  -0.437  1.00  0.00     0.126 A 
HETATM   32  N7  UNL     1       7.457  -1.068  -0.531  1.00  0.00    -0.163 NA
BRANCH  30  33
HETATM   33  C18 UNL     1       8.585   2.325   0.227  1.00  0.00     0.269 C 
HETATM   34  N6  UNL     1       7.860   3.447   0.656  1.00  0.00    -0.057 NA
HETATM   35  O2  UNL     1       9.825   2.369   0.037  1.00  0.00    -0.271 OA
ENDBRANCH  30  33
ENDBRANCH  24  28
ENDBRANCH   1  19
TORSDOF 10
