REMARK  4 active torsions:
REMARK  status: ('A' for Active; 'I' for Inactive)
REMARK    1  A    between atoms: O1_2  and  C2_3 
REMARK    2  A    between atoms: C5_6  and  C6_7 
REMARK    3  A    between atoms: C6_7  and  C7_9 
REMARK    4  A    between atoms: C9_12  and  C10_13 
ROOT
HETATM    1  C7  UNL     1       0.015   0.059  -1.071  1.00  0.00     0.205 C 
HETATM    2  O3  UNL     1       0.800   0.688  -2.074  1.00  0.00    -0.213 OA
HETATM    3  C8  UNL     1      -0.951   0.997  -0.556  1.00  0.00     0.030 C 
HETATM    4  C9  UNL     1      -2.219   0.605  -0.002  1.00  0.00     0.080 C 
HETATM    5  N1  UNL     1      -2.672  -0.560   0.332  1.00  0.00    -0.246 NA
HETATM    6  C16 UNL     1      -1.976  -1.786   0.220  1.00  0.00     0.077 A 
HETATM    7  C17 UNL     1      -2.412  -2.720   1.163  1.00  0.00     0.019 A 
HETATM    8  C18 UNL     1      -1.845  -3.971   1.196  1.00  0.00     0.002 A 
HETATM    9  C19 UNL     1      -0.852  -4.297   0.301  1.00  0.00    -0.000 A 
HETATM   10  C20 UNL     1      -0.382  -3.399  -0.659  1.00  0.00    -0.003 A 
HETATM   11  C21 UNL     1      -0.971  -2.173  -0.656  1.00  0.00    -0.001 A 
HETATM   12  C22 UNL     1      -0.443  -1.221  -1.701  1.00  0.00     0.070 C 
ENDROOT
BRANCH   1  13
HETATM   13  C6  UNL     1       0.974  -0.313   0.015  1.00  0.00     0.205 C 
HETATM   14  O2  UNL     1       0.499  -0.889   1.027  1.00  0.00    -0.288 OA
BRANCH  13  15
HETATM   15  C5  UNL     1       2.381  -0.033  -0.077  1.00  0.00     0.038 A 
HETATM   16  C4  UNL     1       3.214  -0.402   0.957  1.00  0.00     0.005 A 
HETATM   17  C3  UNL     1       4.583  -0.165   0.940  1.00  0.00     0.024 A 
HETATM   18  C2  UNL     1       5.134   0.463  -0.152  1.00  0.00     0.094 A 
HETATM   19  C24 UNL     1       4.313   0.838  -1.197  1.00  0.00     0.024 A 
HETATM   20  C23 UNL     1       2.953   0.600  -1.173  1.00  0.00     0.005 A 
BRANCH  18  21
HETATM   21  O1  UNL     1       6.499   0.703  -0.176  1.00  0.00    -0.328 OA
HETATM   22  C1  UNL     1       7.320   0.310   0.904  1.00  0.00     0.181 C 
ENDBRANCH  18  21
ENDBRANCH  13  15
ENDBRANCH   1  13
BRANCH   4  23
HETATM   23  C10 UNL     1      -3.163   1.732   0.219  1.00  0.00     0.017 A 
HETATM   24  C11 UNL     1      -4.421   1.489   0.747  1.00  0.00     0.002 A 
HETATM   25  C12 UNL     1      -5.253   2.569   0.931  1.00  0.00     0.000 A 
HETATM   26  C13 UNL     1      -4.821   3.830   0.592  1.00  0.00     0.000 A 
HETATM   27  C14 UNL     1      -3.569   4.056   0.069  1.00  0.00     0.000 A 
HETATM   28  C15 UNL     1      -2.732   2.988  -0.119  1.00  0.00     0.002 A 
ENDBRANCH   4  23
TORSDOF 4
