REMARK  14 active torsions:
REMARK  status: ('A' for Active; 'I' for Inactive)
REMARK    1  A    between atoms: O1_2  and  C2_3 
REMARK    2  A    between atoms: C7_8  and  C8_9 
REMARK    3  A    between atoms: C9_10  and  N1_11 
REMARK    4  A    between atoms: C13_15  and  C14_16 
REMARK       I    between atoms: C14_16  and  N2_18 
REMARK    5  A    between atoms: N2_18  and  C15_19 
REMARK    6  A    between atoms: C16_21  and  C17_22 
REMARK    7  A    between atoms: C22_27  and  N4_28 
REMARK       I    between atoms: N4_28  and  C23_29 
REMARK    8  A    between atoms: N4_28  and  C31_41 
REMARK    9  A    between atoms: C23_29  and  C24_31 
REMARK   10  A    between atoms: C27_34  and  C28_35 
REMARK   11  A    between atoms: C36_46  and  C37_47 
REMARK   12  A    between atoms: C37_47  and  C38_48 
REMARK   13  A    between atoms: C37_47  and  O5_50 
REMARK   14  A    between atoms: O5_50  and  C39_51 
ROOT
HETATM    1  C17 UNL     1      -0.627  -2.196  -0.221  1.00  0.00     0.035 A 
HETATM    2  C18 UNL     1       0.092  -3.390  -0.057  1.00  0.00     0.003 A 
HETATM    3  C19 UNL     1      -0.318  -4.427   0.741  1.00  0.00     0.000 A 
HETATM    4  C20 UNL     1      -1.516  -4.306   1.435  1.00  0.00     0.002 A 
HETATM    5  C21 UNL     1      -2.190  -3.143   1.259  1.00  0.00     0.018 A 
HETATM    6  C22 UNL     1      -1.791  -2.081   0.460  1.00  0.00     0.068 A 
ENDROOT
BRANCH   6   7
HETATM    7  N4  UNL     1      -2.546  -0.871   0.358  1.00  0.00    -0.275 N 
HETATM    8  C23 UNL     1      -2.068   0.380   0.791  1.00  0.00     0.265 C 
HETATM    9  O3  UNL     1      -0.970   0.522   1.406  1.00  0.00    -0.267 OA
BRANCH   8  10
HETATM   10  C24 UNL     1      -2.873   1.580   0.509  1.00  0.00     0.057 A 
HETATM   11  C25 UNL     1      -4.054   1.552  -0.152  1.00  0.00     0.005 A 
HETATM   12  C26 UNL     1      -4.781   2.652  -0.430  1.00  0.00     0.004 A 
HETATM   13  C27 UNL     1      -4.366   3.930  -0.055  1.00  0.00     0.071 A 
HETATM   14  C29 UNL     1      -3.178   3.975   0.610  1.00  0.00     0.004 A 
HETATM   15  C30 UNL     1      -2.405   2.846   0.914  1.00  0.00     0.005 A 
BRANCH  13  16
HETATM   16  C28 UNL     1      -5.236   5.075  -0.402  1.00  0.00     0.419 C 
HETATM   17  F1  UNL     1      -4.663   5.858  -1.387  1.00  0.00    -0.166 F 
HETATM   18  F2  UNL     1      -6.434   4.604  -0.984  1.00  0.00    -0.166 F 
HETATM   19  F3  UNL     1      -5.534   5.895   0.658  1.00  0.00    -0.166 F 
ENDBRANCH  13  16
ENDBRANCH   8  10
BRANCH   7  20
HETATM   20  C31 UNL     1      -3.862  -0.976  -0.158  1.00  0.00     0.065 A 
HETATM   21  C32 UNL     1      -4.049  -1.197  -1.530  1.00  0.00     0.017 A 
HETATM   22  C33 UNL     1      -5.329  -1.272  -2.005  1.00  0.00     0.002 A 
HETATM   23  C34 UNL     1      -6.422  -1.141  -1.194  1.00  0.00    -0.000 A 
HETATM   24  C35 UNL     1      -6.227  -0.922   0.169  1.00  0.00    -0.000 A 
HETATM   25  C36 UNL     1      -4.929  -0.840   0.679  1.00  0.00     0.023 A 
BRANCH  25  26
HETATM   26  C37 UNL     1      -4.862  -0.621   2.157  1.00  0.00     0.172 C 
BRANCH  26  27
HETATM   27  C38 UNL     1      -6.115  -0.022   2.666  1.00  0.00     0.216 C 
HETATM   28  O4  UNL     1      -7.265  -0.728   2.617  1.00  0.00    -0.218 OA
ENDBRANCH  26  27
BRANCH  26  29
HETATM   29  O5  UNL     1      -4.458  -1.685   2.872  1.00  0.00    -0.354 OA
BRANCH  29  30
HETATM   30  C39 UNL     1      -5.125  -2.851   2.918  1.00  0.00     0.093 C 
HETATM   31  C40 UNL     1      -4.302  -3.926   3.705  1.00  0.00     0.030 C 
HETATM   32  C41 UNL     1      -5.543  -3.454   1.610  1.00  0.00     0.030 C 
HETATM   33  C42 UNL     1      -6.347  -2.712   3.857  1.00  0.00     0.030 C 
ENDBRANCH  29  30
ENDBRANCH  26  29
ENDBRANCH  25  26
ENDBRANCH   7  20
ENDBRANCH   6   7
BRANCH   1  34
HETATM   34  C16 UNL     1      -0.049  -1.126  -1.087  1.00  0.00     0.091 A 
HETATM   35  N3  UNL     1       1.226  -1.158  -1.363  1.00  0.00    -0.221 NA
HETATM   36  C15 UNL     1       1.793  -0.242  -2.092  1.00  0.00     0.196 A 
HETATM   37  S1  UNL     1       0.523   0.781  -2.466  1.00  0.00    -0.046 SA
HETATM   38  C43 UNL     1      -0.743  -0.065  -1.619  1.00  0.00     0.058 A 
BRANCH  36  39
HETATM   39  N2  UNL     1       3.227  -0.171  -2.431  1.00  0.00    -0.194 NA
HETATM   40  C14 UNL     1       4.030  -1.274  -2.095  1.00  0.00     0.231 C 
HETATM   41  O2  UNL     1       3.376  -2.280  -1.584  1.00  0.00    -0.168 OA
BRANCH  40  42
HETATM   42  C13 UNL     1       5.446  -1.460  -2.224  1.00  0.00     0.108 A 
HETATM   43  N1  UNL     1       6.448  -0.540  -2.150  1.00  0.00    -0.301 N 
HETATM   44  C10 UNL     1       7.635  -1.146  -2.269  1.00  0.00     0.080 A 
HETATM   45  C11 UNL     1       7.430  -2.480  -2.427  1.00  0.00     0.021 A 
HETATM   46  C12 UNL     1       6.092  -2.672  -2.399  1.00  0.00     0.023 A 
BRANCH  43  47
HETATM   47  C9  UNL     1       6.190   0.796  -1.821  1.00  0.00     0.080 C 
HETATM   48  C8  UNL     1       6.857   1.520  -1.035  1.00  0.00     0.021 C 
BRANCH  48  49
HETATM   49  C7  UNL     1       8.019   1.341  -0.207  1.00  0.00     0.024 A 
HETATM   50  C2  UNL     1       8.523   2.429   0.462  1.00  0.00     0.094 A 
HETATM   51  C3  UNL     1       9.569   2.209   1.360  1.00  0.00     0.024 A 
HETATM   52  C4  UNL     1      10.109   0.959   1.599  1.00  0.00     0.002 A 
HETATM   53  C5  UNL     1       9.590  -0.110   0.919  1.00  0.00     0.000 A 
HETATM   54  C6  UNL     1       8.569   0.064   0.032  1.00  0.00     0.002 A 
BRANCH  50  55
HETATM   55  O1  UNL     1       7.981   3.673   0.218  1.00  0.00    -0.328 OA
HETATM   56  C1  UNL     1       8.452   4.844   0.863  1.00  0.00     0.181 C 
ENDBRANCH  50  55
ENDBRANCH  48  49
ENDBRANCH  43  47
ENDBRANCH  40  42
ENDBRANCH  36  39
ENDBRANCH   1  34
TORSDOF 14
