REMARK  13 active torsions:
REMARK  status: ('A' for Active; 'I' for Inactive)
REMARK    1  A    between atoms: O1_2  and  C2_3 
REMARK    2  A    between atoms: C7_8  and  C8_9 
REMARK    3  A    between atoms: C8_9  and  C9_10 
REMARK    4  A    between atoms: C9_10  and  C10_11 
REMARK    5  A    between atoms: C9_10  and  C30_42 
REMARK    6  A    between atoms: C10_11  and  C11_12 
REMARK    7  A    between atoms: C11_12  and  C13_15 
REMARK       I    between atoms: C13_15  and  N2_17 
REMARK    8  A    between atoms: N2_17  and  C14_18 
REMARK    9  A    between atoms: C14_18  and  C15_19 
REMARK   10  A    between atoms: C14_18  and  C22_29 
REMARK   11  A    between atoms: C15_19  and  C16_20 
REMARK   12  A    between atoms: C19_23  and  N3_24 
REMARK       I    between atoms: C22_29  and  N4_31 
REMARK   13  A    between atoms: N4_31  and  C23_32 
ROOT
HETATM    1  C14 UNL     1      -1.276   1.580  -1.298  1.00  0.00     0.191 C 
ENDROOT
BRANCH   1   2
HETATM    2  N2  UNL     1       0.023   1.685  -1.979  1.00  0.00    -0.228 NA
HETATM    3  C13 UNL     1       1.225   1.716  -1.232  1.00  0.00     0.287 C 
HETATM    4  O2  UNL     1       1.137   1.649   0.016  1.00  0.00    -0.268 OA
BRANCH   3   5
HETATM    5  C11 UNL     1       2.579   1.825  -1.848  1.00  0.00     0.344 C 
HETATM    6  C12 UNL     1       3.163   3.120  -1.357  1.00  0.00     0.049 C 
HETATM    7  N1  UNL     1       2.490   1.900  -3.296  1.00  0.00     0.624 N 
BRANCH   5   8
HETATM    8  C10 UNL     1       3.382   0.638  -1.461  1.00  0.00     0.069 C 
BRANCH   8   9
HETATM    9  C9  UNL     1       3.556   0.410  -0.023  1.00  0.00    -0.037 C 
BRANCH   9  10
HETATM   10  C8  UNL     1       4.235   1.340   0.844  1.00  0.00     0.050 C 
BRANCH  10  11
HETATM   11  C7  UNL     1       5.651   1.542   0.506  1.00  0.00     0.004 A 
HETATM   12  C2  UNL     1       6.566   0.580   0.908  1.00  0.00     0.090 A 
HETATM   13  C3  UNL     1       7.903   0.717   0.614  1.00  0.00     0.024 A 
HETATM   14  C4  UNL     1       8.394   1.813  -0.090  1.00  0.00     0.002 A 
HETATM   15  C5  UNL     1       7.479   2.747  -0.475  1.00  0.00    -0.000 A 
HETATM   16  C6  UNL     1       6.151   2.616  -0.186  1.00  0.00    -0.002 A 
BRANCH  12  17
HETATM   17  O1  UNL     1       6.128  -0.524   1.613  1.00  0.00    -0.328 OA
HETATM   18  C1  UNL     1       6.997  -1.537   2.050  1.00  0.00     0.181 C 
ENDBRANCH  12  17
ENDBRANCH  10  11
ENDBRANCH   9  10
BRANCH   9  19
HETATM   19  C30 UNL     1       3.617  -1.013   0.304  1.00  0.00    -0.007 A 
HETATM   20  C31 UNL     1       4.202  -1.963  -0.490  1.00  0.00    -0.001 A 
HETATM   21  C32 UNL     1       4.213  -3.272  -0.121  1.00  0.00    -0.000 A 
HETATM   22  C33 UNL     1       3.623  -3.670   1.086  1.00  0.00    -0.000 A 
HETATM   23  C34 UNL     1       3.040  -2.715   1.873  1.00  0.00    -0.000 A 
HETATM   24  C35 UNL     1       3.030  -1.406   1.503  1.00  0.00    -0.001 A 
ENDBRANCH   9  19
ENDBRANCH   8   9
ENDBRANCH   5   8
ENDBRANCH   3   5
ENDBRANCH   1   2
BRANCH   1  25
HETATM   25  C15 UNL     1      -0.999   1.680   0.167  1.00  0.00     0.060 C 
BRANCH  25  26
HETATM   26  C16 UNL     1      -2.193   1.604   1.034  1.00  0.00    -0.020 A 
HETATM   27  C17 UNL     1      -2.672   0.401   1.509  1.00  0.00    -0.003 A 
HETATM   28  C18 UNL     1      -3.797   0.341   2.329  1.00  0.00     0.023 A 
HETATM   29  C19 UNL     1      -4.482   1.474   2.702  1.00  0.00     0.127 A 
HETATM   30  C20 UNL     1      -3.999   2.675   2.224  1.00  0.00     0.023 A 
HETATM   31  C21 UNL     1      -2.891   2.748   1.415  1.00  0.00    -0.003 A 
BRANCH  29  32
HETATM   32  N3  UNL     1      -5.629   1.429   3.544  1.00  0.00    -0.114 N 
HETATM   33  O3  UNL     1      -6.288   2.571   3.924  1.00  0.00    -0.532 OA
HETATM   34  O4  UNL     1      -6.042   0.331   3.939  1.00  0.00    -0.532 OA
ENDBRANCH  29  32
ENDBRANCH  25  26
ENDBRANCH   1  25
BRANCH   1  35
HETATM   35  C22 UNL     1      -1.874   0.226  -1.661  1.00  0.00     0.278 C 
HETATM   36  O5  UNL     1      -1.257  -0.533  -2.432  1.00  0.00    -0.268 OA
HETATM   37  N4  UNL     1      -3.081  -0.199  -1.166  1.00  0.00    -0.212 NA
BRANCH  37  38
HETATM   38  C23 UNL     1      -3.879  -1.334  -1.285  1.00  0.00     0.093 C 
HETATM   39  C24 UNL     1      -3.651  -2.415  -1.986  1.00  0.00     0.166 C 
HETATM   40  N5  UNL     1      -2.440  -2.521  -2.756  1.00  0.00    -0.078 NA
HETATM   41  N6  UNL     1      -4.565  -3.514  -2.052  1.00  0.00    -0.214 NA
HETATM   42  C25 UNL     1      -5.772  -3.458  -1.345  1.00  0.00     0.162 C 
HETATM   43  N7  UNL     1      -6.484  -4.422  -0.924  1.00  0.00    -0.132 N 
HETATM   44  C26 UNL     1      -6.258  -2.048  -1.066  1.00  0.00     0.060 C 
HETATM   45  C27 UNL     1      -7.419  -2.071  -0.112  1.00  0.00     0.008 C 
HETATM   46  C28 UNL     1      -6.678  -1.487  -2.409  1.00  0.00     0.008 C 
HETATM   47  C29 UNL     1      -5.158  -1.255  -0.456  1.00  0.00     0.056 C 
ENDBRANCH  37  38
ENDBRANCH   1  35
TORSDOF 13
