REMARK  10 active torsions:
REMARK  status: ('A' for Active; 'I' for Inactive)
REMARK    1  A    between atoms: C2_2  and  C3_4 
REMARK    2  A    between atoms: C3_4  and  C4_5 
REMARK    3  A    between atoms: N2_22  and  C14_23 
REMARK    4  A    between atoms: C14_23  and  C15_24 
REMARK    5  A    between atoms: C15_24  and  C16_26 
REMARK    6  A    between atoms: C22_32  and  C23_33 
REMARK    7  A    between atoms: C29_39  and  C30_40 
REMARK    8  A    between atoms: C30_40  and  C31_42 
REMARK    9  A    between atoms: C32_43  and  C33_44 
REMARK   10  A    between atoms: C36_47  and  N3_48 
ROOT
HETATM    1  C4  UNL     1      -0.932   1.447  -0.110  1.00  0.00     0.106 C 
HETATM    2  C5  UNL     1      -1.053   2.692   0.692  1.00  0.00     0.180 C 
HETATM    3  O2  UNL     1      -1.999   2.783   1.558  1.00  0.00    -0.291 OA
HETATM    4  C6  UNL     1      -0.178   3.866   0.595  1.00  0.00     0.054 A 
HETATM    5  C7  UNL     1      -0.765   5.106   0.281  1.00  0.00     0.004 A 
HETATM    6  C8  UNL     1      -0.081   6.265   0.128  1.00  0.00     0.000 A 
HETATM    7  C9  UNL     1       1.301   6.261   0.284  1.00  0.00     0.002 A 
HETATM    8  C10 UNL     1       1.874   5.068   0.589  1.00  0.00     0.020 A 
HETATM    9  C11 UNL     1       1.190   3.853   0.756  1.00  0.00     0.098 A 
HETATM   10  N1  UNL     1       1.955   2.709   1.111  1.00  0.00    -0.138 NA
HETATM   11  S1  UNL     1       1.901   1.821   2.557  1.00  0.00     0.385 S 
HETATM   12  O3  UNL     1       3.035   0.802   2.549  1.00  0.00    -0.173 OA
HETATM   13  O4  UNL     1       2.038   2.591   3.815  1.00  0.00    -0.173 OA
HETATM   14  O5  UNL     1       0.422   1.025   2.613  1.00  0.00    -0.228 OA
HETATM   15  C12 UNL     1       0.444   0.111   1.555  1.00  0.00     0.236 C 
HETATM   16  C13 UNL     1      -0.740  -0.782   1.738  1.00  0.00     0.267 C 
HETATM   17  O6  UNL     1      -0.733  -1.610   2.676  1.00  0.00    -0.269 OA
HETATM   18  N2  UNL     1      -1.812  -0.651   0.843  1.00  0.00    -0.308 N 
HETATM   19  C22 UNL     1      -2.156   0.566   0.106  1.00  0.00     0.118 C 
HETATM   20  C29 UNL     1       0.333   0.775   0.251  1.00  0.00     0.041 C 
ENDROOT
BRANCH  20  21
HETATM   21  C30 UNL     1       1.278   0.431  -0.784  1.00  0.00     0.191 C 
HETATM   22  O8  UNL     1       1.084   0.740  -1.978  1.00  0.00    -0.287 OA
BRANCH  21  23
HETATM   23  C31 UNL     1       2.486  -0.291  -0.435  1.00  0.00     0.042 C 
HETATM   24  C32 UNL     1       3.341  -0.601  -1.391  1.00  0.00     0.003 C 
BRANCH  24  25
HETATM   25  C33 UNL     1       4.569  -1.330  -1.079  1.00  0.00     0.000 A 
HETATM   26  C34 UNL     1       4.861  -1.699   0.220  1.00  0.00     0.002 A 
HETATM   27  C35 UNL     1       6.033  -2.394   0.427  1.00  0.00     0.024 A 
HETATM   28  C36 UNL     1       6.891  -2.715  -0.610  1.00  0.00     0.127 A 
HETATM   29  C37 UNL     1       6.575  -2.332  -1.908  1.00  0.00     0.024 A 
HETATM   30  C38 UNL     1       5.410  -1.638  -2.128  1.00  0.00     0.002 A 
BRANCH  28  31
HETATM   31  N3  UNL     1       8.081  -3.434  -0.356  1.00  0.00    -0.114 N 
HETATM   32  O9  UNL     1       8.377  -3.790   0.928  1.00  0.00    -0.532 OA
HETATM   33  O10 UNL     1       8.849  -3.744  -1.267  1.00  0.00    -0.532 OA
ENDBRANCH  28  31
ENDBRANCH  24  25
ENDBRANCH  21  23
ENDBRANCH  20  21
BRANCH   1  34
HETATM   34  C3  UNL     1      -0.886   1.738  -1.596  1.00  0.00     0.078 C 
BRANCH  34  35
HETATM   35  C2  UNL     1      -2.094   2.468  -2.018  1.00  0.00     0.152 C 
HETATM   36  C1  UNL     1      -3.035   3.137  -1.083  1.00  0.00     0.072 C 
HETATM   37  O1  UNL     1      -2.394   2.566  -3.223  1.00  0.00    -0.296 OA
ENDBRANCH  34  35
ENDBRANCH   1  34
BRANCH  19  38
HETATM   38  C23 UNL     1      -2.688   0.065  -1.231  1.00  0.00    -0.001 A 
HETATM   39  C24 UNL     1      -1.865  -0.479  -2.179  1.00  0.00    -0.003 A 
HETATM   40  C25 UNL     1      -2.390  -0.968  -3.344  1.00  0.00    -0.000 A 
HETATM   41  C26 UNL     1      -3.742  -0.927  -3.591  1.00  0.00    -0.000 A 
HETATM   42  C27 UNL     1      -4.599  -0.386  -2.659  1.00  0.00    -0.000 A 
HETATM   43  C28 UNL     1      -4.049   0.099  -1.496  1.00  0.00    -0.003 A 
ENDBRANCH  19  38
BRANCH  18  44
HETATM   44  C14 UNL     1      -2.656  -1.807   0.617  1.00  0.00     0.174 C 
BRANCH  44  45
HETATM   45  C15 UNL     1      -3.808  -1.887   1.546  1.00  0.00     0.196 C 
HETATM   46  O7  UNL     1      -4.002  -1.013   2.455  1.00  0.00    -0.289 OA
BRANCH  45  47
HETATM   47  C16 UNL     1      -4.720  -3.004   1.386  1.00  0.00     0.037 A 
HETATM   48  C17 UNL     1      -4.553  -3.964   0.423  1.00  0.00     0.003 A 
HETATM   49  C18 UNL     1      -5.409  -5.030   0.263  1.00  0.00     0.000 A 
HETATM   50  C19 UNL     1      -6.486  -5.159   1.092  1.00  0.00     0.000 A 
HETATM   51  C20 UNL     1      -6.688  -4.215   2.071  1.00  0.00     0.000 A 
HETATM   52  C21 UNL     1      -5.814  -3.134   2.229  1.00  0.00     0.003 A 
ENDBRANCH  45  47
ENDBRANCH  44  45
ENDBRANCH  18  44
TORSDOF 10
