REMARK  5 active torsions:
REMARK  status: ('A' for Active; 'I' for Inactive)
REMARK    1  A    between atoms: C2_2  and  C4_4 
REMARK    2  A    between atoms: C4_4  and  N1_5 
REMARK    3  A    between atoms: C7_9  and  C8_10 
REMARK    4  A    between atoms: C8_10  and  C9_12 
REMARK    5  A    between atoms: C9_12  and  C10_13 
REMARK       I    between atoms: C10_13  and  N3_15 
ROOT
HETATM    1  C8  UNL     1       0.626  -0.398   0.608  1.00  0.00     0.200 C 
HETATM    2  O1  UNL     1       0.893  -0.484   1.819  1.00  0.00    -0.289 OA
ENDROOT
BRANCH   1   3
HETATM    3  C7  UNL     1       1.564   0.234  -0.320  1.00  0.00     0.116 A 
HETATM    4  N1  UNL     1       2.771   0.756  -0.049  1.00  0.00    -0.307 N 
HETATM    5  C5  UNL     1       3.276   1.275  -1.208  1.00  0.00     0.179 A 
HETATM    6  N2  UNL     1       2.376   1.063  -2.175  1.00  0.00    -0.222 NA
HETATM    7  C6  UNL     1       1.307   0.429  -1.690  1.00  0.00     0.121 A 
BRANCH   4   8
HETATM    8  C4  UNL     1       3.451   0.747   1.231  1.00  0.00     0.108 C 
BRANCH   8   9
HETATM    9  C2  UNL     1       4.389  -0.429   1.356  1.00  0.00     0.023 C 
HETATM   10  C1  UNL     1       5.403  -0.255   0.211  1.00  0.00     0.002 C 
HETATM   11  C3  UNL     1       3.716  -1.763   1.158  1.00  0.00     0.002 C 
ENDBRANCH   8   9
ENDBRANCH   4   8
ENDBRANCH   1   3
BRANCH   1  12
HETATM   12  C9  UNL     1      -0.652  -0.942   0.120  1.00  0.00     0.158 C 
BRANCH  12  13
HETATM   13  C10 UNL     1      -1.725   0.050   0.411  1.00  0.00     0.241 C 
HETATM   14  O2  UNL     1      -1.398   1.135   0.989  1.00  0.00    -0.272 OA
HETATM   15  N3  UNL     1      -3.074  -0.163   0.074  1.00  0.00    -0.320 N 
HETATM   16  C11 UNL     1      -4.068   0.825   0.375  1.00  0.00     0.104 C 
HETATM   17  C15 UNL     1      -3.453  -1.386  -0.578  1.00  0.00     0.104 C 
HETATM   18  C12 UNL     1      -4.891   1.028  -0.898  1.00  0.00     0.024 C 
HETATM   19  C13 UNL     1      -5.551  -0.242  -1.353  1.00  0.00     0.004 C 
HETATM   20  C14 UNL     1      -4.961  -1.479  -0.732  1.00  0.00     0.024 C 
ENDBRANCH  12  13
ENDBRANCH   1  12
TORSDOF 5
