REMARK  8 active torsions:
REMARK  status: ('A' for Active; 'I' for Inactive)
REMARK    1  A    between atoms: C4_5  and  C5_6 
REMARK    2  A    between atoms: C10_11  and  O1_12 
REMARK    3  A    between atoms: O1_12  and  C11_13 
REMARK    4  A    between atoms: C11_13  and  C12_14 
REMARK    5  A    between atoms: C11_13  and  C18_20 
REMARK    6  A    between atoms: C25_28  and  S1_29 
REMARK    7  A    between atoms: N3_31  and  C26_32 
REMARK    8  A    between atoms: C26_32  and  C27_33 
ROOT
HETATM    1  C1  UNL     1      -1.284  -0.152   5.239  1.00  0.00     0.148 C 
HETATM    2  N1  UNL     1      -0.958   0.083   3.829  1.00  0.00    -0.265 N 
HETATM    3  C2  UNL     1       0.357   0.541   3.499  1.00  0.00     0.152 C 
HETATM    4  C3  UNL     1       0.723   0.030   2.156  1.00  0.00     0.043 C 
HETATM    5  C4  UNL     1       2.010  -0.183   1.823  1.00  0.00     0.003 C 
HETATM    6  C24 UNL     1      -0.356  -0.235   1.212  1.00  0.00     0.220 C 
HETATM    7  O2  UNL     1      -0.070  -0.385  -0.005  1.00  0.00    -0.285 OA
HETATM    8  C25 UNL     1      -1.713  -0.327   1.641  1.00  0.00     0.181 C 
HETATM    9  N4  UNL     1      -1.961  -0.165   2.920  1.00  0.00    -0.162 NA
ENDROOT
BRANCH   5  10
HETATM   10  C5  UNL     1       3.012   0.100   2.818  1.00  0.00     0.022 A 
HETATM   11  C6  UNL     1       2.775  -0.234   4.154  1.00  0.00     0.002 A 
HETATM   12  C7  UNL     1       3.680   0.020   5.159  1.00  0.00     0.000 A 
HETATM   13  C8  UNL     1       4.862   0.623   4.840  1.00  0.00     0.002 A 
HETATM   14  C9  UNL     1       5.126   0.963   3.540  1.00  0.00     0.024 A 
HETATM   15  C10 UNL     1       4.194   0.700   2.515  1.00  0.00     0.094 A 
BRANCH  15  16
HETATM   16  O1  UNL     1       4.563   1.082   1.280  1.00  0.00    -0.329 OA
BRANCH  16  17
HETATM   17  C11 UNL     1       3.890   0.926   0.069  1.00  0.00     0.143 C 
BRANCH  17  18
HETATM   18  C12 UNL     1       4.664   1.582  -1.046  1.00  0.00     0.005 A 
HETATM   19  C13 UNL     1       6.001   1.394  -1.168  1.00  0.00    -0.002 A 
HETATM   20  C14 UNL     1       6.751   1.984  -2.175  1.00  0.00    -0.000 A 
HETATM   21  C15 UNL     1       6.076   2.781  -3.058  1.00  0.00    -0.000 A 
HETATM   22  C16 UNL     1       4.721   2.995  -2.966  1.00  0.00    -0.000 A 
HETATM   23  C17 UNL     1       3.994   2.378  -1.932  1.00  0.00    -0.002 A 
ENDBRANCH  17  18
BRANCH  17  24
HETATM   24  C18 UNL     1       3.867  -0.587  -0.205  1.00  0.00     0.032 C 
HETATM   25  C19 UNL     1       5.293  -1.092  -0.291  1.00  0.00     0.003 C 
HETATM   26  C20 UNL     1       5.321  -2.561  -0.543  1.00  0.00     0.000 C 
HETATM   27  C21 UNL     1       4.698  -2.795  -1.923  1.00  0.00     0.000 C 
HETATM   28  C22 UNL     1       3.247  -2.346  -1.786  1.00  0.00     0.000 C 
HETATM   29  C23 UNL     1       3.195  -0.863  -1.535  1.00  0.00     0.003 C 
ENDBRANCH  17  24
ENDBRANCH  16  17
ENDBRANCH  15  16
ENDBRANCH   5  10
BRANCH   8  30
HETATM   30  S1  UNL     1      -3.047  -0.682   0.502  1.00  0.00     0.014 SA
HETATM   31  N2  UNL     1      -4.403   0.200   0.382  1.00  0.00    -0.134 NA
HETATM   32  N3  UNL     1      -5.369  -0.208  -0.570  1.00  0.00    -0.206 N 
HETATM   33  C33 UNL     1      -5.235  -1.320  -1.413  1.00  0.00     0.278 A 
HETATM   34  O3  UNL     1      -6.195  -1.563  -2.222  1.00  0.00    -0.265 OA
HETATM   35  C34 UNL     1      -4.109  -2.231  -1.463  1.00  0.00     0.065 A 
HETATM   36  C35 UNL     1      -4.043  -3.310  -2.315  1.00  0.00     0.005 A 
HETATM   37  C39 UNL     1      -2.997  -2.078  -0.633  1.00  0.00     0.048 A 
HETATM   38  C36 UNL     1      -2.991  -4.186  -2.375  1.00  0.00     0.000 A 
HETATM   39  C37 UNL     1      -1.915  -4.004  -1.544  1.00  0.00     0.001 A 
HETATM   40  C38 UNL     1      -1.933  -2.939  -0.673  1.00  0.00     0.008 A 
BRANCH  32  41
HETATM   41  C26 UNL     1      -6.583   0.623  -0.635  1.00  0.00     0.158 C 
BRANCH  41  42
HETATM   42  C27 UNL     1      -6.410   1.678  -1.678  1.00  0.00     0.002 A 
HETATM   43  C28 UNL     1      -5.764   2.871  -1.444  1.00  0.00    -0.002 A 
HETATM   44  C29 UNL     1      -5.666   3.782  -2.497  1.00  0.00    -0.000 A 
HETATM   45  C30 UNL     1      -6.209   3.463  -3.714  1.00  0.00    -0.000 A 
HETATM   46  C31 UNL     1      -6.852   2.277  -3.952  1.00  0.00    -0.000 A 
HETATM   47  C32 UNL     1      -6.954   1.372  -2.920  1.00  0.00    -0.002 A 
ENDBRANCH  41  42
ENDBRANCH  32  41
ENDBRANCH   8  30
TORSDOF 8
