REMARK  17 active torsions:
REMARK  status: ('A' for Active; 'I' for Inactive)
REMARK    1  A    between atoms: N1_2  and  C2_3 
REMARK    2  A    between atoms: N4_10  and  C6_11 
REMARK    3  A    between atoms: C7_13  and  C8_14 
REMARK       I    between atoms: C8_14  and  N5_16 
REMARK    4  A    between atoms: N5_16  and  C9_17 
REMARK    5  A    between atoms: C9_17  and  C10_18 
REMARK    6  A    between atoms: C15_23  and  N6_24 
REMARK       I    between atoms: N6_24  and  C16_25 
REMARK    7  A    between atoms: C16_25  and  C17_27 
REMARK    8  A    between atoms: C22_32  and  N7_33 
REMARK       I    between atoms: N7_33  and  C23_34 
REMARK    9  A    between atoms: C23_34  and  C24_36 
REMARK   10  A    between atoms: C29_41  and  S1_42 
REMARK   11  A    between atoms: S1_42  and  N8_45 
REMARK   12  A    between atoms: N8_45  and  C30_46 
REMARK   13  A    between atoms: C33_49  and  C34_50 
REMARK   14  A    between atoms: C34_50  and  C35_51 
REMARK   15  A    between atoms: C35_51  and  C36_52 
REMARK   16  A    between atoms: C42_63  and  C43_64 
REMARK   17  A    between atoms: C43_64  and  C44_65 
ROOT
HETATM    1  N6  UNL     1       0.089  -1.645   0.611  1.00  0.00    -0.236 NA
HETATM    2  C16 UNL     1       0.304  -0.631   1.546  1.00  0.00     0.275 C 
HETATM    3  O4  UNL     1      -0.640  -0.237   2.264  1.00  0.00    -0.266 OA
ENDROOT
BRANCH   2   4
HETATM    4  C17 UNL     1       1.636  -0.009   1.704  1.00  0.00     0.059 A 
HETATM    5  C18 UNL     1       1.823   1.103   2.476  1.00  0.00     0.005 A 
HETATM    6  C19 UNL     1       3.085   1.687   2.606  1.00  0.00    -0.003 A 
HETATM    7  C20 UNL     1       4.159   1.125   1.938  1.00  0.00    -0.004 A 
HETATM    8  C21 UNL     1       5.496   1.779   2.110  1.00  0.00     0.033 C 
HETATM    9  C22 UNL     1       4.012   0.009   1.152  1.00  0.00     0.081 A 
HETATM   10  C39 UNL     1       2.740  -0.530   1.059  1.00  0.00     0.024 A 
BRANCH   9  11
HETATM   11  N7  UNL     1       5.111  -0.545   0.423  1.00  0.00    -0.208 NA
HETATM   12  C23 UNL     1       4.930  -1.791  -0.247  1.00  0.00     0.280 C 
HETATM   13  O5  UNL     1       3.759  -2.306  -0.103  1.00  0.00    -0.265 OA
BRANCH  12  14
HETATM   14  C24 UNL     1       5.932  -2.479  -1.039  1.00  0.00     0.070 A 
HETATM   15  C25 UNL     1       5.752  -3.836  -1.234  1.00  0.00     0.005 A 
HETATM   16  C26 UNL     1       6.608  -4.631  -1.956  1.00  0.00     0.000 A 
HETATM   17  C27 UNL     1       7.727  -4.041  -2.527  1.00  0.00     0.001 A 
HETATM   18  C28 UNL     1       7.930  -2.698  -2.349  1.00  0.00     0.013 A 
HETATM   19  C29 UNL     1       7.043  -1.915  -1.612  1.00  0.00     0.110 A 
BRANCH  19  20
HETATM   20  S1  UNL     1       7.318  -0.208  -1.400  1.00  0.00     0.285 S 
HETATM   21  O6  UNL     1       8.469   0.239  -2.274  1.00  0.00    -0.198 OA
HETATM   22  O7  UNL     1       6.102   0.569  -1.782  1.00  0.00    -0.198 OA
BRANCH  20  23
HETATM   23  N8  UNL     1       7.729   0.068   0.272  1.00  0.00    -0.158 NA
BRANCH  23  24
HETATM   24  C30 UNL     1       9.119   0.369   0.580  1.00  0.00     0.095 A 
HETATM   25  C31 UNL     1      10.140  -0.294  -0.034  1.00  0.00     0.020 A 
HETATM   26  C32 UNL     1      11.460   0.071   0.260  1.00  0.00    -0.002 A 
HETATM   27  C33 UNL     1      11.764   1.077   1.149  1.00  0.00    -0.011 A 
HETATM   28  C37 UNL     1      10.715   1.749   1.774  1.00  0.00     0.055 A 
HETATM   29 CL1  UNL     1      11.106   3.023   2.897  1.00  0.00    -0.083 Cl
HETATM   30  C38 UNL     1       9.404   1.372   1.469  1.00  0.00     0.031 A 
BRANCH  27  31
HETATM   31  C34 UNL     1      13.180   1.437   1.435  1.00  0.00     0.038 C 
BRANCH  31  32
HETATM   32  C35 UNL     1      13.571   2.728   0.784  1.00  0.00     0.102 C 
BRANCH  32  33
HETATM   33  C36 UNL     1      13.447   2.747  -0.680  1.00  0.00     0.185 C 
HETATM   34  O8  UNL     1      13.728   3.818  -1.299  1.00  0.00    -0.647 OA
HETATM   35  O9  UNL     1      13.041   1.641  -1.384  1.00  0.00    -0.647 OA
ENDBRANCH  32  33
ENDBRANCH  31  32
ENDBRANCH  27  31
ENDBRANCH  23  24
ENDBRANCH  20  23
ENDBRANCH  19  20
ENDBRANCH  12  14
ENDBRANCH   9  11
ENDBRANCH   2   4
BRANCH   1  36
HETATM   36  C15 UNL     1      -1.138  -2.348   0.335  1.00  0.00     0.108 C 
HETATM   37  C10 UNL     1      -2.191  -1.604  -0.350  1.00  0.00     0.047 C 
HETATM   38  C11 UNL     1      -1.932  -1.349  -1.786  1.00  0.00     0.004 C 
HETATM   39  C12 UNL     1      -0.596  -1.959  -2.217  1.00  0.00     0.000 C 
HETATM   40  C13 UNL     1      -0.455  -3.394  -1.839  1.00  0.00     0.002 C 
HETATM   41  C14 UNL     1      -0.811  -3.668  -0.400  1.00  0.00     0.025 C 
BRANCH  37  42
HETATM   42  C9  UNL     1      -2.913  -0.593   0.435  1.00  0.00     0.131 C 
BRANCH  42  43
HETATM   43  N5  UNL     1      -4.236  -0.417  -0.149  1.00  0.00    -0.236 NA
HETATM   44  C8  UNL     1      -5.212   0.494   0.309  1.00  0.00     0.281 C 
HETATM   45  O3  UNL     1      -4.895   1.215   1.296  1.00  0.00    -0.268 OA
BRANCH  44  46
HETATM   46  C7  UNL     1      -6.563   0.593  -0.355  1.00  0.00     0.230 C 
HETATM   47  O2  UNL     1      -7.249   1.614   0.229  1.00  0.00    -0.324 OA
HETATM   48  C6  UNL     1      -8.184   1.130   1.123  1.00  0.00     0.239 C 
HETATM   49  C41 UNL     1      -7.717  -0.293   1.466  1.00  0.00     0.234 C 
HETATM   50  C40 UNL     1      -7.273  -0.708   0.062  1.00  0.00     0.223 C 
HETATM   51  O11 UNL     1      -8.809  -1.013   1.915  1.00  0.00    -0.216 OA
HETATM   52  O10 UNL     1      -6.415  -1.791   0.069  1.00  0.00    -0.217 OA
BRANCH  48  53
HETATM   53  N4  UNL     1      -9.465   0.927   0.425  1.00  0.00    -0.302 N 
HETATM   54  C5  UNL     1      -9.330   0.146  -0.782  1.00  0.00     0.097 C 
HETATM   55  C4  UNL     1     -10.257  -0.584  -1.388  1.00  0.00     0.145 C 
HETATM   56  C3  UNL     1     -11.642  -0.765  -0.969  1.00  0.00     0.295 C 
HETATM   57  N3  UNL     1      -9.893  -1.270  -2.572  1.00  0.00    -0.094 NA
HETATM   58  N2  UNL     1     -12.298  -0.227   0.165  1.00  0.00    -0.187 NA
HETATM   59  O1  UNL     1     -12.370  -1.497  -1.697  1.00  0.00    -0.264 OA
HETATM   60  C2  UNL     1     -11.854   0.690   0.935  1.00  0.00     0.173 C 
HETATM   61  C42 UNL     1     -10.635   1.492   0.994  1.00  0.00     0.075 C 
BRANCH  60  62
HETATM   62  N1  UNL     1     -12.791   0.991   1.991  1.00  0.00    -0.250 NA
HETATM   63  C1  UNL     1     -14.006   0.207   2.133  1.00  0.00     0.154 C 
ENDBRANCH  60  62
BRANCH  61  64
HETATM   64  C43 UNL     1     -10.806   2.962   0.856  1.00  0.00     0.047 C 
BRANCH  64  65
HETATM   65  C44 UNL     1     -11.432   3.354  -0.443  1.00  0.00     0.006 A 
HETATM   66  C45 UNL     1     -11.613   4.878  -0.602  1.00  0.00     0.000 A 
HETATM   67  C46 UNL     1     -12.806   3.972  -0.406  1.00  0.00     0.000 A 
ENDBRANCH  64  65
ENDBRANCH  61  64
ENDBRANCH  48  53
ENDBRANCH  44  46
ENDBRANCH  42  43
ENDBRANCH  37  42
ENDBRANCH   1  36
TORSDOF 17
