REMARK  3 active torsions:
REMARK  status: ('A' for Active; 'I' for Inactive)
REMARK    1  A    between atoms: O1_2  and  C2_3 
REMARK    2  A    between atoms: C2_3  and  C3_5 
REMARK    3  A    between atoms: C4_6  and  C5_7 
ROOT
HETATM    1  C5  UNL     1       1.340  -0.153   0.328  1.00  0.00     0.026 C 
HETATM    2  C6  UNL     1       0.638  -1.066  -0.203  1.00  0.00     0.002 C 
HETATM    3  C7  UNL     1      -0.683  -1.340  -0.543  1.00  0.00     0.000 C 
HETATM    4  C8  UNL     1      -1.766  -1.465   0.192  1.00  0.00     0.006 C 
HETATM    5  C9  UNL     1      -3.059  -1.766  -0.469  1.00  0.00     0.080 A 
HETATM    6  C10 UNL     1      -3.428  -1.038  -1.536  1.00  0.00     0.139 A 
HETATM    7  N1  UNL     1      -2.554   0.026  -1.979  1.00  0.00    -0.265 NA
HETATM    8  C11 UNL     1      -2.120   1.095  -1.082  1.00  0.00     0.131 C 
HETATM    9  C12 UNL     1      -0.654   1.350  -1.192  1.00  0.00     0.053 C 
HETATM   10  C13 UNL     1      -0.132   1.892   0.155  1.00  0.00    -0.014 A 
HETATM   11  C14 UNL     1       0.805   1.143   0.821  1.00  0.00     0.027 A 
HETATM   12  S1  UNL     1       1.116   2.078   2.224  1.00  0.00    -0.087 SA
HETATM   13  C15 UNL     1       0.060   3.382   1.934  1.00  0.00     0.029 A 
HETATM   14  C16 UNL     1      -0.247   4.555   2.642  1.00  0.00     0.006 A 
HETATM   15  C17 UNL     1      -1.181   5.463   2.138  1.00  0.00     0.001 A 
HETATM   16  C18 UNL     1      -1.758   5.131   0.935  1.00  0.00     0.000 A 
HETATM   17  C19 UNL     1      -1.453   4.003   0.270  1.00  0.00     0.000 A 
HETATM   18  C20 UNL     1      -0.512   3.055   0.744  1.00  0.00     0.003 A 
HETATM   19  C21 UNL     1      -4.711  -1.508  -2.034  1.00  0.00     0.299 A 
HETATM   20  O3  UNL     1      -5.394  -1.083  -3.025  1.00  0.00    -0.263 OA
HETATM   21  N2  UNL     1      -5.157  -2.599  -1.209  1.00  0.00    -0.168 NA
HETATM   22  C22 UNL     1      -4.117  -2.743  -0.244  1.00  0.00     0.283 A 
HETATM   23  O4  UNL     1      -4.135  -3.625   0.691  1.00  0.00    -0.265 OA
ENDROOT
BRANCH   1  24
HETATM   24  C4  UNL     1       2.800  -0.321   0.490  1.00  0.00     0.115 A 
HETATM   25  C3  UNL     1       3.587  -1.340   0.059  1.00  0.00     0.185 A 
HETATM   26  O6  UNL     1       4.825  -1.048   0.481  1.00  0.00    -0.251 OA
HETATM   27  C23 UNL     1       4.818   0.073   1.129  1.00  0.00     0.393 A 
HETATM   28  N3  UNL     1       3.582   0.577   1.169  1.00  0.00    -0.184 NA
HETATM   29  O5  UNL     1       5.827   0.633   1.660  1.00  0.00    -0.236 OA
BRANCH  25  30
HETATM   30  C2  UNL     1       3.253  -2.516  -0.693  1.00  0.00     0.321 C 
HETATM   31  O2  UNL     1       2.144  -2.834  -1.110  1.00  0.00    -0.257 OA
BRANCH  30  32
HETATM   32  O1  UNL     1       4.296  -3.430  -1.005  1.00  0.00    -0.294 OA
HETATM   33  C1  UNL     1       3.971  -4.582  -1.741  1.00  0.00     0.185 C 
ENDBRANCH  30  32
ENDBRANCH  25  30
ENDBRANCH   1  24
TORSDOF 3
