REMARK  7 active torsions:
REMARK  status: ('A' for Active; 'I' for Inactive)
REMARK    1  A    between atoms: O1_2  and  C2_3 
REMARK    2  A    between atoms: C2_3  and  C3_5 
REMARK    3  A    between atoms: C5_7  and  C6_8 
REMARK       I    between atoms: C6_8  and  N1_10 
REMARK    4  A    between atoms: N1_10  and  C7_11 
REMARK    5  A    between atoms: C10_17  and  N4_18 
REMARK       I    between atoms: N4_18  and  C11_19 
REMARK    6  A    between atoms: C11_19  and  C12_21 
REMARK    7  A    between atoms: C12_21  and  C13_22 
ROOT
HETATM    1  C7  UNL     1      -0.870   0.047  -1.717  1.00  0.00     0.186 C 
HETATM    2  C8  UNL     1      -0.190   0.956  -2.626  1.00  0.00     0.279 C 
HETATM    3  O4  UNL     1      -0.897   1.922  -3.084  1.00  0.00    -0.268 OA
HETATM    4  N2  UNL     1       1.142   0.927  -3.078  1.00  0.00    -0.198 NA
HETATM    5  C9  UNL     1       2.172   0.314  -2.625  1.00  0.00     0.153 C 
HETATM    6  N3  UNL     1       3.354   0.556  -3.390  1.00  0.00    -0.082 NA
HETATM    7  C10 UNL     1       2.325  -0.588  -1.469  1.00  0.00     0.160 C 
HETATM    8  C19 UNL     1       1.093  -1.440  -1.248  1.00  0.00     0.032 C 
HETATM    9  C20 UNL     1       1.460  -2.506  -0.238  1.00  0.00     0.002 C 
HETATM   10  C21 UNL     1       0.613  -2.390   0.988  1.00  0.00     0.000 C 
HETATM   11  C22 UNL     1       0.621  -1.000   1.584  1.00  0.00     0.000 C 
HETATM   12  C23 UNL     1       0.162   0.027   0.571  1.00  0.00     0.003 C 
HETATM   13  C24 UNL     1      -0.061  -0.675  -0.725  1.00  0.00     0.034 C 
ENDROOT
BRANCH   1  14
HETATM   14  N1  UNL     1      -2.058   0.617  -1.118  1.00  0.00    -0.230 NA
HETATM   15  C6  UNL     1      -3.219   0.843  -1.921  1.00  0.00     0.257 C 
HETATM   16  O3  UNL     1      -3.132   0.512  -3.153  1.00  0.00    -0.270 OA
BRANCH  15  17
HETATM   17  C5  UNL     1      -4.459   1.432  -1.361  1.00  0.00     0.124 A 
HETATM   18  C4  UNL     1      -4.998   0.563  -0.302  1.00  0.00     0.117 A 
HETATM   19  C3  UNL     1      -5.707  -0.259   0.513  1.00  0.00     0.098 A 
HETATM   20  N5  UNL     1      -6.274   0.133  -0.726  1.00  0.00    -0.225 NA
HETATM   21  C26 UNL     1      -6.510   0.714  -1.997  1.00  0.00     0.047 A 
HETATM   22  C25 UNL     1      -5.502   1.460  -2.393  1.00  0.00    -0.003 A 
BRANCH  19  23
HETATM   23  C2  UNL     1      -5.691  -0.958   1.787  1.00  0.00     0.304 C 
HETATM   24  O2  UNL     1      -4.717  -0.899   2.576  1.00  0.00    -0.258 OA
BRANCH  23  25
HETATM   25  O1  UNL     1      -6.779  -1.741   2.196  1.00  0.00    -0.295 OA
HETATM   26  C1  UNL     1      -6.816  -2.439   3.413  1.00  0.00     0.185 C 
ENDBRANCH  23  25
ENDBRANCH  19  23
ENDBRANCH  15  17
ENDBRANCH   1  14
BRANCH   7  27
HETATM   27  N4  UNL     1       2.683   0.126  -0.261  1.00  0.00    -0.233 NA
HETATM   28  C11 UNL     1       3.831  -0.151   0.493  1.00  0.00     0.256 C 
HETATM   29  O5  UNL     1       4.607  -1.065   0.120  1.00  0.00    -0.270 OA
BRANCH  28  30
HETATM   30  C12 UNL     1       4.178   0.591   1.721  1.00  0.00     0.116 C 
BRANCH  30  31
HETATM   31  C13 UNL     1       5.442   0.106   2.320  1.00  0.00    -0.013 A 
HETATM   32  C14 UNL     1       5.403  -0.947   3.207  1.00  0.00    -0.004 A 
HETATM   33  C15 UNL     1       6.553  -1.453   3.812  1.00  0.00    -0.000 A 
HETATM   34  C16 UNL     1       7.767  -0.870   3.504  1.00  0.00    -0.000 A 
HETATM   35  C17 UNL     1       7.808   0.186   2.616  1.00  0.00    -0.000 A 
HETATM   36  C18 UNL     1       6.664   0.691   2.012  1.00  0.00    -0.004 A 
ENDBRANCH  30  31
ENDBRANCH  28  30
ENDBRANCH   7  27
TORSDOF 7
