REMARK  5 active torsions:
REMARK  status: ('A' for Active; 'I' for Inactive)
REMARK    1  A    between atoms: O1_2  and  C2_3 
REMARK    2  A    between atoms: C2_3  and  C3_5 
REMARK    3  A    between atoms: C3_5  and  C4_6 
REMARK    4  A    between atoms: C4_6  and  N1_7 
REMARK    5  A    between atoms: C5_9  and  C6_10 
ROOT
HETATM    1  N1  UNL     1       1.648  -1.108   0.611  1.00  0.00    -0.250 N 
HETATM    2  N2  UNL     1       0.724  -0.250   0.343  1.00  0.00    -0.169 NA
HETATM    3  C5  UNL     1      -0.351  -0.083  -0.398  1.00  0.00     0.105 C 
HETATM    4  C15 UNL     1      -1.018  -0.720  -1.454  1.00  0.00     0.025 A 
HETATM    5  C16 UNL     1      -2.182  -0.020  -1.674  1.00  0.00     0.002 A 
HETATM    6  C17 UNL     1      -3.017  -0.460  -2.676  1.00  0.00     0.000 A 
HETATM    7  C18 UNL     1      -2.730  -1.567  -3.460  1.00  0.00     0.001 A 
HETATM    8  C19 UNL     1      -1.561  -2.278  -3.245  1.00  0.00     0.006 A 
HETATM    9  C20 UNL     1      -0.743  -1.821  -2.241  1.00  0.00     0.031 A 
HETATM   10  S1  UNL     1       0.624  -2.883  -2.197  1.00  0.00    -0.085 SA
HETATM   11  C21 UNL     1       2.012  -2.906  -1.165  1.00  0.00     0.047 A 
HETATM   12  C22 UNL     1       2.840  -3.868  -1.632  1.00  0.00     0.008 A 
HETATM   13  C23 UNL     1       4.026  -4.095  -0.988  1.00  0.00     0.001 A 
HETATM   14  C24 UNL     1       4.330  -3.321   0.124  1.00  0.00     0.002 A 
HETATM   15  C25 UNL     1       3.486  -2.338   0.603  1.00  0.00     0.019 A 
HETATM   16  C26 UNL     1       2.269  -2.098  -0.048  1.00  0.00     0.084 A 
ENDROOT
BRANCH   3  17
HETATM   17  C6  UNL     1      -1.095   1.134  -0.027  1.00  0.00     0.063 A 
HETATM   18  C7  UNL     1      -0.829   2.340  -0.629  1.00  0.00     0.217 A 
HETATM   19  O3  UNL     1       0.161   2.405  -1.608  1.00  0.00    -0.169 OA
HETATM   20  N3  UNL     1      -1.542   3.412  -0.244  1.00  0.00    -0.181 NA
HETATM   21  C8  UNL     1      -2.494   3.330   0.703  1.00  0.00     0.281 A 
HETATM   22  O4  UNL     1      -3.153   4.358   1.049  1.00  0.00    -0.265 OA
HETATM   23  C9  UNL     1      -2.783   2.112   1.332  1.00  0.00     0.058 A 
HETATM   24  C10 UNL     1      -3.770   2.052   2.306  1.00  0.00     0.005 A 
HETATM   25  C14 UNL     1      -2.066   1.012   0.950  1.00  0.00     0.010 A 
HETATM   26  C11 UNL     1      -4.009   0.832   2.887  1.00  0.00     0.000 A 
HETATM   27  C12 UNL     1      -3.291  -0.273   2.506  1.00  0.00     0.000 A 
HETATM   28  C13 UNL     1      -2.311  -0.227   1.542  1.00  0.00     0.000 A 
ENDBRANCH   3  17
BRANCH   1  29
HETATM   29  C4  UNL     1       2.182  -1.016   1.970  1.00  0.00     0.138 C 
BRANCH  29  30
HETATM   30  C3  UNL     1       3.349  -0.115   2.103  1.00  0.00     0.122 C 
BRANCH  30  31
HETATM   31  C2  UNL     1       3.151   1.286   1.749  1.00  0.00     0.274 C 
HETATM   32  O2  UNL     1       4.176   2.040   1.844  1.00  0.00    -0.264 OA
BRANCH  31  33
HETATM   33  O1  UNL     1       1.978   1.876   1.325  1.00  0.00    -0.299 OA
HETATM   34  C1  UNL     1       1.990   3.258   1.030  1.00  0.00     0.184 C 
ENDBRANCH  31  33
ENDBRANCH  30  31
ENDBRANCH  29  30
ENDBRANCH   1  29
TORSDOF 5
