REMARK  16 active torsions:
REMARK  status: ('A' for Active; 'I' for Inactive)
REMARK    1  A    between atoms: O1_2  and  C2_3 
REMARK    2  A    between atoms: C2_3  and  C3_4 
REMARK    3  A    between atoms: C2_3  and  C27_35 
REMARK    4  A    between atoms: C3_4  and  C4_5 
REMARK    5  A    between atoms: C4_5  and  C5_6 
REMARK    6  A    between atoms: C5_6  and  C6_7 
REMARK    7  A    between atoms: C6_7  and  C7_8 
REMARK    8  A    between atoms: C7_8  and  N1_9 
REMARK    9  A    between atoms: N1_9  and  C8_10 
REMARK   10  A    between atoms: C13_15  and  N2_16 
REMARK       I    between atoms: N2_16  and  C14_17 
REMARK   11  A    between atoms: C14_17  and  C15_19 
REMARK   12  A    between atoms: C20_24  and  N3_25 
REMARK   13  A    between atoms: N3_25  and  S1_26 
REMARK   14  A    between atoms: S1_26  and  C21_29 
REMARK   15  A    between atoms: C31_40  and  C32_41 
REMARK       I    between atoms: C32_41  and  N5_43 
REMARK   16  A    between atoms: N5_43  and  C33_44 
ROOT
HETATM    1  C7  UNL     1       0.157  -1.301  -1.316  1.00  0.00     0.072 C 
ENDROOT
BRANCH   1   2
HETATM    2  C6  UNL     1      -1.053  -1.653  -0.471  1.00  0.00     0.047 C 
BRANCH   2   3
HETATM    3  C5  UNL     1      -2.200  -2.065  -1.447  1.00  0.00     0.007 C 
BRANCH   3   4
HETATM    4  C4  UNL     1      -2.392  -0.802  -2.278  1.00  0.00     0.007 C 
BRANCH   4   5
HETATM    5  C3  UNL     1      -2.828   0.382  -1.544  1.00  0.00     0.053 C 
BRANCH   5   6
HETATM    6  C2  UNL     1      -4.137   0.432  -0.967  1.00  0.00     0.089 C 
BRANCH   6   7
HETATM    7  O1  UNL     1      -4.347   1.674  -0.278  1.00  0.00    -0.331 OA
HETATM    8  C1  UNL     1      -3.352   1.737   0.695  1.00  0.00     0.181 C 
ENDBRANCH   6   7
BRANCH   6   9
HETATM    9  C27 UNL     1      -4.825  -0.643  -0.313  1.00  0.00     0.104 A 
HETATM   10  N4  UNL     1      -4.218  -1.679   0.247  1.00  0.00    -0.243 NA
HETATM   11  C28 UNL     1      -4.832  -2.663   0.904  1.00  0.00     0.095 A 
HETATM   12  C29 UNL     1      -6.195  -2.680   1.062  1.00  0.00    -0.003 A 
HETATM   13  C30 UNL     1      -6.889  -1.635   0.508  1.00  0.00     0.017 A 
HETATM   14  C41 UNL     1      -6.839  -3.789   1.799  1.00  0.00     0.066 C 
HETATM   15  C31 UNL     1      -6.229  -0.619  -0.176  1.00  0.00     0.074 A 
HETATM   16  C39 UNL     1      -8.392  -1.557   0.611  1.00  0.00     0.317 C 
HETATM   17  N6  UNL     1      -8.873  -2.921   0.861  1.00  0.00     0.344 N 
HETATM   18  C40 UNL     1      -8.281  -3.400   2.091  1.00  0.00     0.295 C 
BRANCH  15  19
HETATM   19  C32 UNL     1      -6.962   0.450  -0.812  1.00  0.00     0.276 C 
HETATM   20  O5  UNL     1      -6.478   1.353  -1.515  1.00  0.00    -0.266 OA
HETATM   21  N5  UNL     1      -8.393   0.494  -0.633  1.00  0.00    -0.236 NA
BRANCH  21  22
HETATM   22  C33 UNL     1      -9.191   1.534  -1.241  1.00  0.00     0.107 C 
HETATM   23  C34 UNL     1      -8.334   2.610  -1.870  1.00  0.00     0.024 C 
HETATM   24  C35 UNL     1      -8.008   3.624  -0.772  1.00  0.00     0.002 C 
HETATM   25  C36 UNL     1      -9.270   4.391  -0.464  1.00  0.00     0.000 C 
HETATM   26  C37 UNL     1     -10.497   3.528  -0.649  1.00  0.00     0.002 C 
HETATM   27  C38 UNL     1     -10.213   2.099  -0.277  1.00  0.00     0.024 C 
ENDBRANCH  21  22
ENDBRANCH  15  19
ENDBRANCH   6   9
ENDBRANCH   5   6
ENDBRANCH   4   5
ENDBRANCH   3   4
ENDBRANCH   2   3
ENDBRANCH   1   2
BRANCH   1  28
HETATM   28  N1  UNL     1       1.312  -0.951  -0.625  1.00  0.00    -0.247 NA
BRANCH  28  29
HETATM   29  C8  UNL     1       1.599  -0.020   0.373  1.00  0.00     0.099 A 
HETATM   30  C9  UNL     1       0.652   0.762   0.980  1.00  0.00     0.021 A 
HETATM   31  C10 UNL     1       0.978   1.646   1.988  1.00  0.00     0.002 A 
HETATM   32  C11 UNL     1       2.304   1.731   2.381  1.00  0.00     0.002 A 
HETATM   33  C12 UNL     1       3.292   0.951   1.785  1.00  0.00     0.021 A 
HETATM   34  C13 UNL     1       2.932   0.072   0.776  1.00  0.00     0.102 A 
BRANCH  34  35
HETATM   35  N2  UNL     1       3.868  -0.737   0.101  1.00  0.00    -0.206 NA
HETATM   36  C14 UNL     1       5.216  -0.761   0.486  1.00  0.00     0.281 C 
HETATM   37  O2  UNL     1       5.533  -0.017   1.479  1.00  0.00    -0.265 OA
BRANCH  36  38
HETATM   38  C15 UNL     1       6.237  -1.543  -0.143  1.00  0.00     0.076 A 
HETATM   39  C16 UNL     1       5.941  -2.326  -1.240  1.00  0.00     0.006 A 
HETATM   40  C17 UNL     1       6.908  -3.079  -1.899  1.00  0.00     0.000 A 
HETATM   41  C18 UNL     1       8.223  -3.045  -1.440  1.00  0.00     0.002 A 
HETATM   42  C19 UNL     1       8.522  -2.267  -0.351  1.00  0.00     0.020 A 
HETATM   43  C20 UNL     1       7.532  -1.515   0.303  1.00  0.00     0.098 A 
BRANCH  43  44
HETATM   44  N3  UNL     1       7.815  -0.747   1.448  1.00  0.00    -0.158 NA
BRANCH  44  45
HETATM   45  S1  UNL     1       9.247   0.209   1.504  1.00  0.00     0.285 S 
HETATM   46  O3  UNL     1       9.405   0.868   2.850  1.00  0.00    -0.198 OA
HETATM   47  O4  UNL     1      10.445  -0.672   1.251  1.00  0.00    -0.198 OA
BRANCH  45  48
HETATM   48  C21 UNL     1       9.222   1.440   0.248  1.00  0.00     0.105 A 
HETATM   49  C22 UNL     1       9.803   1.209  -0.976  1.00  0.00     0.013 A 
HETATM   50  C23 UNL     1       9.759   2.205  -1.945  1.00  0.00     0.001 A 
HETATM   51  C24 UNL     1       9.148   3.414  -1.707  1.00  0.00     0.000 A 
HETATM   52  C25 UNL     1       8.563   3.631  -0.455  1.00  0.00     0.001 A 
HETATM   53  C26 UNL     1       8.613   2.642   0.491  1.00  0.00     0.013 A 
ENDBRANCH  45  48
ENDBRANCH  44  45
ENDBRANCH  43  44
ENDBRANCH  36  38
ENDBRANCH  34  35
ENDBRANCH  28  29
ENDBRANCH   1  28
TORSDOF 16
