REMARK  19 active torsions:
REMARK  status: ('A' for Active; 'I' for Inactive)
REMARK    1  A    between atoms: O1_2  and  C2_3 
REMARK    2  A    between atoms: C2_3  and  C3_4 
REMARK    3  A    between atoms: C3_4  and  O2_5 
REMARK    4  A    between atoms: O2_5  and  C4_6 
REMARK    5  A    between atoms: C4_6  and  C5_7 
REMARK    6  A    between atoms: C5_7  and  O3_8 
REMARK    7  A    between atoms: O3_8  and  C6_9 
REMARK    8  A    between atoms: C6_9  and  C7_10 
REMARK    9  A    between atoms: C7_10  and  O4_11 
REMARK   10  A    between atoms: O4_11  and  C8_12 
REMARK   11  A    between atoms: C8_12  and  C9_14 
REMARK   12  A    between atoms: C14_19  and  N1_20 
REMARK       I    between atoms: N1_20  and  C15_21 
REMARK   13  A    between atoms: C15_21  and  C16_23 
REMARK   14  A    between atoms: C16_23  and  N2_24 
REMARK   15  A    between atoms: C18_27  and  C19_28 
REMARK   16  A    between atoms: C19_28  and  C20_30 
REMARK   17  A    between atoms: C21_31  and  C22_32 
REMARK   18  A    between atoms: N3_38  and  C28_39 
REMARK   19  A    between atoms: C28_39  and  C29_40 
ROOT
HETATM    1  N2  UNL     1      -1.925  -2.995  -0.379  1.00  0.00    -0.241 N 
HETATM    2  C17 UNL     1      -1.777  -2.319   0.863  1.00  0.00     0.269 C 
HETATM    3  O7  UNL     1      -1.745  -2.769   2.037  1.00  0.00    -0.269 OA
HETATM    4  C18 UNL     1      -1.653  -0.855   0.530  1.00  0.00     0.227 C 
HETATM    5  N3  UNL     1      -2.533  -0.763  -0.606  1.00  0.00    -0.285 N 
HETATM    6  C36 UNL     1      -2.398  -2.022  -1.299  1.00  0.00     0.331 C 
HETATM    7  O9  UNL     1      -2.648  -2.256  -2.515  1.00  0.00    -0.246 OA
ENDROOT
BRANCH   1   8
HETATM    8  C16 UNL     1      -1.624  -4.399  -0.556  1.00  0.00     0.203 C 
BRANCH   8   9
HETATM    9  C15 UNL     1      -0.217  -4.628  -0.949  1.00  0.00     0.279 C 
HETATM   10  N1  UNL     1       0.736  -3.603  -1.135  1.00  0.00    -0.210 NA
HETATM   11  O6  UNL     1       0.142  -5.817  -1.127  1.00  0.00    -0.268 OA
BRANCH  10  12
HETATM   12  C14 UNL     1       2.056  -3.968  -1.514  1.00  0.00     0.089 A 
HETATM   13  C9  UNL     1       3.042  -3.018  -1.714  1.00  0.00     0.081 A 
HETATM   14  C10 UNL     1       4.292  -3.414  -2.075  1.00  0.00     0.007 A 
HETATM   15  C11 UNL     1       4.634  -4.752  -2.257  1.00  0.00     0.000 A 
HETATM   16  C12 UNL     1       3.653  -5.696  -2.057  1.00  0.00     0.002 A 
HETATM   17  C13 UNL     1       2.389  -5.292  -1.691  1.00  0.00     0.019 A 
BRANCH  13  18
HETATM   18  C8  UNL     1       2.712  -1.630  -1.534  1.00  0.00     0.297 C 
HETATM   19  O5  UNL     1       1.555  -1.236  -1.199  1.00  0.00    -0.259 OA
BRANCH  18  20
HETATM   20  O4  UNL     1       3.654  -0.610  -1.718  1.00  0.00    -0.296 OA
BRANCH  20  21
HETATM   21  C7  UNL     1       3.304   0.748  -1.535  1.00  0.00     0.184 C 
BRANCH  21  22
HETATM   22  C6  UNL     1       4.561   1.575  -1.814  1.00  0.00     0.175 C 
BRANCH  22  23
HETATM   23  O3  UNL     1       5.583   1.247  -0.967  1.00  0.00    -0.349 OA
BRANCH  23  24
HETATM   24  C5  UNL     1       5.425   1.489   0.349  1.00  0.00     0.174 C 
BRANCH  24  25
HETATM   25  C4  UNL     1       5.293   2.903   0.773  1.00  0.00     0.174 C 
BRANCH  25  26
HETATM   26  O2  UNL     1       4.243   3.621   0.281  1.00  0.00    -0.349 OA
BRANCH  26  27
HETATM   27  C3  UNL     1       3.005   3.145   0.678  1.00  0.00     0.174 C 
BRANCH  27  28
HETATM   28  C2  UNL     1       1.933   4.032   0.062  1.00  0.00     0.174 C 
BRANCH  28  29
HETATM   29  O1  UNL     1       2.162   5.335   0.545  1.00  0.00    -0.349 OA
HETATM   30  C1  UNL     1       1.225   6.228   0.033  1.00  0.00     0.174 C 
ENDBRANCH  28  29
ENDBRANCH  27  28
ENDBRANCH  26  27
ENDBRANCH  25  26
ENDBRANCH  24  25
ENDBRANCH  23  24
ENDBRANCH  22  23
ENDBRANCH  21  22
ENDBRANCH  20  21
ENDBRANCH  18  20
ENDBRANCH  13  18
ENDBRANCH  10  12
ENDBRANCH   8   9
ENDBRANCH   1   8
BRANCH   4  31
HETATM   31  C19 UNL     1      -2.106  -0.004   1.660  1.00  0.00     0.203 C 
HETATM   32  O8  UNL     1      -3.148   0.659   1.496  1.00  0.00    -0.289 OA
BRANCH  31  33
HETATM   33  C20 UNL     1      -1.337   0.010   2.856  1.00  0.00     0.040 C 
HETATM   34  C21 UNL     1      -1.413   0.586   3.971  1.00  0.00     0.003 C 
BRANCH  34  35
HETATM   35  C22 UNL     1      -2.390   1.509   4.458  1.00  0.00     0.000 A 
HETATM   36  C23 UNL     1      -2.210   1.992   5.761  1.00  0.00     0.000 A 
HETATM   37  C24 UNL     1      -3.074   2.880   6.345  1.00  0.00     0.000 A 
HETATM   38  C25 UNL     1      -4.165   3.329   5.650  1.00  0.00     0.000 A 
HETATM   39  C26 UNL     1      -4.376   2.880   4.371  1.00  0.00     0.000 A 
HETATM   40  C27 UNL     1      -3.492   1.989   3.812  1.00  0.00     0.000 A 
ENDBRANCH  34  35
ENDBRANCH  31  33
ENDBRANCH   4  31
BRANCH   5  41
HETATM   41  C28 UNL     1      -3.396   0.293  -1.045  1.00  0.00     0.133 C 
BRANCH  41  42
HETATM   42  C29 UNL     1      -2.746   1.237  -1.961  1.00  0.00    -0.004 A 
HETATM   43  C30 UNL     1      -1.437   1.152  -2.382  1.00  0.00    -0.003 A 
HETATM   44  C31 UNL     1      -0.875   2.070  -3.247  1.00  0.00    -0.000 A 
HETATM   45  C32 UNL     1      -1.609   3.127  -3.734  1.00  0.00    -0.000 A 
HETATM   46  C33 UNL     1      -2.919   3.230  -3.324  1.00  0.00    -0.004 A 
HETATM   47  C34 UNL     1      -3.477   2.299  -2.452  1.00  0.00    -0.024 A 
HETATM   48  C35 UNL     1      -4.906   2.480  -2.055  1.00  0.00     0.031 C 
ENDBRANCH  41  42
ENDBRANCH   5  41
TORSDOF 19
