REMARK  9 active torsions:
REMARK  status: ('A' for Active; 'I' for Inactive)
REMARK    1  A    between atoms: O1_2  and  C2_3 
REMARK    2  A    between atoms: C4_5  and  N1_6 
REMARK       I    between atoms: N1_6  and  C5_7 
REMARK    3  A    between atoms: C5_7  and  C6_9 
REMARK    4  A    between atoms: C7_10  and  C8_11 
REMARK    5  A    between atoms: C13_16  and  C14_17 
REMARK    6  A    between atoms: C18_21  and  N2_22 
REMARK    7  A    between atoms: C22_28  and  C23_29 
REMARK    8  A    between atoms: C23_29  and  S1_30 
REMARK    9  A    between atoms: S1_30  and  C24_33 
ROOT
HETATM    1  N1  UNL     1       0.089  -1.851  -0.883  1.00  0.00    -0.208 NA
HETATM    2  C5  UNL     1      -0.906  -0.955  -0.341  1.00  0.00     0.279 C 
HETATM    3  O2  UNL     1      -0.490   0.052   0.276  1.00  0.00    -0.265 OA
ENDROOT
BRANCH   1   4
HETATM    4  C4  UNL     1       1.469  -1.536  -0.683  1.00  0.00     0.087 A 
HETATM    5  C3  UNL     1       2.470  -2.347  -1.173  1.00  0.00     0.043 A 
HETATM    6  C2  UNL     1       3.806  -2.040  -0.978  1.00  0.00     0.093 A 
HETATM    7  C22 UNL     1       4.189  -0.911  -0.287  1.00  0.00     0.017 A 
HETATM    8  C21 UNL     1       3.193  -0.095   0.206  1.00  0.00     0.000 A 
HETATM    9  C20 UNL     1       1.864  -0.408   0.007  1.00  0.00     0.019 A 
BRANCH   6  10
HETATM   10  O1  UNL     1       4.820  -2.855  -1.470  1.00  0.00    -0.328 OA
HETATM   11  C1  UNL     1       4.560  -4.039  -2.194  1.00  0.00     0.181 C 
ENDBRANCH   6  10
BRANCH   7  12
HETATM   12  C23 UNL     1       5.636  -0.577  -0.075  1.00  0.00     0.155 C 
BRANCH  12  13
HETATM   13  S1  UNL     1       5.827   0.915   0.836  1.00  0.00     0.194 S 
HETATM   14  O5  UNL     1       5.151   0.838   2.186  1.00  0.00    -0.221 OA
HETATM   15  O6  UNL     1       5.242   2.101   0.116  1.00  0.00    -0.221 OA
BRANCH  13  16
HETATM   16  C24 UNL     1       7.539   1.214   1.028  1.00  0.00     0.084 A 
HETATM   17  C25 UNL     1       8.279   0.753   2.089  1.00  0.00     0.011 A 
HETATM   18  C26 UNL     1       9.633   1.025   2.180  1.00  0.00     0.001 A 
HETATM   19  C27 UNL     1      10.289   1.765   1.216  1.00  0.00     0.000 A 
HETATM   20  C28 UNL     1       9.528   2.222   0.154  1.00  0.00     0.001 A 
HETATM   21  C29 UNL     1       8.179   1.953   0.060  1.00  0.00     0.011 A 
ENDBRANCH  13  16
ENDBRANCH  12  13
ENDBRANCH   7  12
ENDBRANCH   1   4
BRANCH   2  22
HETATM   22  C6  UNL     1      -2.297  -1.214  -0.507  1.00  0.00     0.062 C 
HETATM   23  C7  UNL     1      -3.368  -0.652  -0.170  1.00  0.00     0.005 C 
BRANCH  23  24
HETATM   24  C8  UNL     1      -3.649   0.557   0.567  1.00  0.00     0.000 A 
HETATM   25  C9  UNL     1      -2.678   1.390   1.080  1.00  0.00     0.000 A 
HETATM   26  C10 UNL     1      -3.036   2.524   1.770  1.00  0.00     0.000 A 
HETATM   27  C11 UNL     1      -4.346   2.891   1.987  1.00  0.00     0.000 A 
HETATM   28  C12 UNL     1      -5.300   2.046   1.466  1.00  0.00     0.000 A 
HETATM   29  C13 UNL     1      -4.978   0.921   0.782  1.00  0.00     0.000 A 
BRANCH  29  30
HETATM   30  C14 UNL     1      -6.021   0.036   0.236  1.00  0.00     0.002 A 
HETATM   31  C15 UNL     1      -5.924  -1.336   0.388  1.00  0.00     0.000 A 
HETATM   32  C16 UNL     1      -6.898  -2.171  -0.121  1.00  0.00     0.002 A 
HETATM   33  C17 UNL     1      -7.976  -1.652  -0.785  1.00  0.00     0.024 A 
HETATM   34  C18 UNL     1      -8.106  -0.292  -0.956  1.00  0.00     0.127 A 
HETATM   35  C19 UNL     1      -7.116   0.516  -0.435  1.00  0.00     0.024 A 
BRANCH  34  36
HETATM   36  N2  UNL     1      -9.227   0.210  -1.644  1.00  0.00    -0.114 N 
HETATM   37  O3  UNL     1      -9.364   1.558  -1.818  1.00  0.00    -0.532 OA
HETATM   38  O4  UNL     1     -10.083  -0.561  -2.088  1.00  0.00    -0.532 OA
ENDBRANCH  34  36
ENDBRANCH  29  30
ENDBRANCH  23  24
ENDBRANCH   2  22
TORSDOF 9
