REMARK  17 active torsions:
REMARK  status: ('A' for Active; 'I' for Inactive)
REMARK    1  A    between atoms: O1_2  and  C2_3 
REMARK    2  A    between atoms: C5_6  and  C6_7 
REMARK    3  A    between atoms: C6_7  and  C7_8 
REMARK    4  A    between atoms: C6_7  and  N7_42 
REMARK    5  A    between atoms: C7_8  and  C8_9 
REMARK    6  A    between atoms: C8_9  and  C9_11 
REMARK    7  A    between atoms: C8_9  and  C12_18 
REMARK       I    between atoms: C9_11  and  N2_13 
REMARK    8  A    between atoms: N2_13  and  C10_14 
REMARK    9  A    between atoms: C10_14  and  C11_15 
REMARK       I    between atoms: C12_18  and  N4_20 
REMARK   10  A    between atoms: N4_20  and  C13_21 
REMARK   11  A    between atoms: C13_21  and  C14_22 
REMARK   12  A    between atoms: C13_21  and  C19_33 
REMARK   13  A    between atoms: C14_22  and  C15_23 
REMARK       I    between atoms: C15_23  and  N5_25 
REMARK   14  A    between atoms: N5_25  and  O6_26 
REMARK   15  A    between atoms: O6_26  and  S1_27 
REMARK   16  A    between atoms: S1_27  and  C16_30 
REMARK   17  A    between atoms: C24_38  and  N6_39 
ROOT
HETATM    1  C12 UNL     1      -0.225  -0.500   0.286  1.00  0.00     0.295 C 
HETATM    2  O4  UNL     1       0.458  -1.193  -0.516  1.00  0.00    -0.268 OA
HETATM    3  N4  UNL     1       0.427   0.473   1.085  1.00  0.00    -0.233 NA
ENDROOT
BRANCH   1   4
HETATM    4  C8  UNL     1      -1.716  -0.748   0.348  1.00  0.00     0.413 C 
HETATM    5  N1  UNL     1      -2.146  -0.251   1.680  1.00  0.00     0.633 N 
BRANCH   4   6
HETATM    6  C7  UNL     1      -2.405   0.114  -0.660  1.00  0.00     0.089 C 
BRANCH   6   7
HETATM    7  C6  UNL     1      -3.875   0.074  -0.617  1.00  0.00     0.175 C 
BRANCH   7   8
HETATM    8  C5  UNL     1      -4.557   0.953  -1.588  1.00  0.00     0.004 A 
HETATM    9  C4  UNL     1      -4.321   0.827  -2.940  1.00  0.00    -0.000 A 
HETATM   10  C3  UNL     1      -4.953   1.675  -3.839  1.00  0.00     0.024 A 
HETATM   11  C2  UNL     1      -5.823   2.654  -3.442  1.00  0.00     0.094 A 
HETATM   12  C26 UNL     1      -6.058   2.776  -2.068  1.00  0.00     0.024 A 
HETATM   13  C25 UNL     1      -5.438   1.943  -1.176  1.00  0.00    -0.000 A 
BRANCH  11  14
HETATM   14  O1  UNL     1      -6.465   3.514  -4.342  1.00  0.00    -0.328 OA
HETATM   15  C1  UNL     1      -7.357   4.505  -3.850  1.00  0.00     0.181 C 
ENDBRANCH  11  14
ENDBRANCH   7   8
BRANCH   7  16
HETATM   16  N7  UNL     1      -4.432   0.139   0.692  1.00  0.00    -0.136 N 
HETATM   17  O11 UNL     1      -4.445   1.312   1.444  1.00  0.00    -0.535 OA
HETATM   18  O12 UNL     1      -4.941  -0.836   1.230  1.00  0.00    -0.535 OA
ENDBRANCH   7  16
ENDBRANCH   6   7
ENDBRANCH   4   6
BRANCH   4  19
HETATM   19  C9  UNL     1      -2.051  -2.159   0.269  1.00  0.00     0.295 C 
HETATM   20  O2  UNL     1      -1.810  -2.804  -0.800  1.00  0.00    -0.268 OA
HETATM   21  N2  UNL     1      -2.647  -2.904   1.332  1.00  0.00    -0.226 NA
BRANCH  21  22
HETATM   22  C10 UNL     1      -2.984  -4.286   1.273  1.00  0.00     0.212 C 
BRANCH  22  23
HETATM   23  C11 UNL     1      -1.845  -5.174   1.010  1.00  0.00     0.268 C 
HETATM   24  N3  UNL     1      -0.518  -4.682   0.840  1.00  0.00    -0.059 NA
HETATM   25  O3  UNL     1      -2.007  -6.422   0.924  1.00  0.00    -0.274 OA
ENDBRANCH  22  23
ENDBRANCH  21  22
ENDBRANCH   4  19
ENDBRANCH   1   4
BRANCH   3  26
HETATM   26  C13 UNL     1       1.874   0.693   1.001  1.00  0.00     0.140 C 
BRANCH  26  27
HETATM   27  C14 UNL     1       2.410  -0.505   0.252  1.00  0.00     0.121 C 
BRANCH  27  28
HETATM   28  C15 UNL     1       3.864  -0.472   0.076  1.00  0.00     0.282 C 
HETATM   29  O5  UNL     1       4.521   0.474   0.570  1.00  0.00    -0.268 OA
HETATM   30  N5  UNL     1       4.551  -1.484  -0.637  1.00  0.00    -0.076 NA
BRANCH  30  31
HETATM   31  O6  UNL     1       5.885  -1.421  -0.764  1.00  0.00    -0.122 OA
BRANCH  31  32
HETATM   32  S1  UNL     1       6.433  -1.094  -2.294  1.00  0.00     0.300 S 
HETATM   33  O7  UNL     1       7.894  -0.662  -2.202  1.00  0.00    -0.196 OA
HETATM   34  O8  UNL     1       6.436  -2.311  -3.200  1.00  0.00    -0.196 OA
BRANCH  32  35
HETATM   35  C16 UNL     1       5.510   0.183  -3.102  1.00  0.00     0.136 A 
HETATM   36  C17 UNL     1       5.529   1.552  -2.396  1.00  0.00     0.020 A 
HETATM   37  C18 UNL     1       6.242   1.310  -3.683  1.00  0.00     0.020 A 
ENDBRANCH  32  35
ENDBRANCH  31  32
ENDBRANCH  30  31
ENDBRANCH  27  28
ENDBRANCH  26  27
BRANCH  26  38
HETATM   38  C19 UNL     1       2.387   0.747   2.402  1.00  0.00     0.022 A 
HETATM   39  C20 UNL     1       3.089  -0.358   2.926  1.00  0.00    -0.001 A 
HETATM   40  C21 UNL     1       3.558  -0.312   4.196  1.00  0.00    -0.000 A 
HETATM   41  C22 UNL     1       3.378   0.787   5.010  1.00  0.00     0.002 A 
HETATM   42  C23 UNL     1       2.684   1.859   4.468  1.00  0.00     0.023 A 
HETATM   43  C24 UNL     1       2.174   1.870   3.166  1.00  0.00     0.124 A 
BRANCH  43  44
HETATM   44  N6  UNL     1       1.469   2.998   2.693  1.00  0.00    -0.114 N 
HETATM   45  O9  UNL     1       0.502   3.019   1.734  1.00  0.00    -0.532 OA
HETATM   46  O10 UNL     1       1.745   4.128   3.208  1.00  0.00    -0.532 OA
ENDBRANCH  43  44
ENDBRANCH  26  38
ENDBRANCH   3  26
TORSDOF 17
