REMARK  9 active torsions:
REMARK  status: ('A' for Active; 'I' for Inactive)
REMARK    1  A    between atoms: O1_2  and  C2_3 
REMARK    2  A    between atoms: C5_6  and  C6_7 
REMARK    3  A    between atoms: C6_7  and  C7_8 
REMARK    4  A    between atoms: C7_8  and  C8_9 
REMARK       I    between atoms: C8_9  and  N1_11 
REMARK    5  A    between atoms: N1_11  and  N2_12 
REMARK    6  A    between atoms: N2_12  and  C9_13 
REMARK    7  A    between atoms: C13_17  and  C14_18 
REMARK       I    between atoms: C14_18  and  N3_20 
REMARK    8  A    between atoms: N4_23  and  C17_24 
REMARK    9  A    between atoms: C27_34  and  O4_35 
ROOT
HETATM    1  C9  UNL     1       0.072  -0.616  -1.338  1.00  0.00     0.103 A 
HETATM    2  C10 UNL     1      -0.735  -1.625  -1.836  1.00  0.00     0.021 A 
HETATM    3  C11 UNL     1      -0.348  -2.947  -1.740  1.00  0.00     0.002 A 
HETATM    4  C12 UNL     1       0.852  -3.262  -1.145  1.00  0.00     0.005 A 
HETATM    5  C13 UNL     1       1.661  -2.275  -0.648  1.00  0.00     0.057 A 
HETATM    6  C25 UNL     1       1.255  -0.965  -0.754  1.00  0.00     0.026 A 
ENDROOT
BRANCH   1   7
HETATM    7  N2  UNL     1      -0.399   0.730  -1.463  1.00  0.00    -0.145 NA
BRANCH   7   8
HETATM    8  N1  UNL     1      -1.140   1.337  -0.437  1.00  0.00    -0.110 NA
HETATM    9  C8  UNL     1      -2.290   0.693   0.150  1.00  0.00     0.274 C 
HETATM   10  O2  UNL     1      -2.633  -0.419  -0.262  1.00  0.00    -0.269 OA
BRANCH   9  11
HETATM   11  C7  UNL     1      -3.029   1.372   1.227  1.00  0.00     0.096 C 
BRANCH  11  12
HETATM   12  C6  UNL     1      -4.208   0.648   1.770  1.00  0.00     0.036 C 
BRANCH  12  13
HETATM   13  C5  UNL     1      -5.264   0.388   0.784  1.00  0.00    -0.020 A 
HETATM   14  C4  UNL     1      -5.287  -0.769   0.063  1.00  0.00    -0.002 A 
HETATM   15  C3  UNL     1      -6.248  -1.096  -0.878  1.00  0.00     0.026 A 
HETATM   16  C2  UNL     1      -7.246  -0.185  -1.093  1.00  0.00     0.116 A 
HETATM   17  C27 UNL     1      -7.268   0.993  -0.392  1.00  0.00     0.116 A 
HETATM   18  C26 UNL     1      -6.297   1.285   0.535  1.00  0.00     0.022 A 
BRANCH  16  19
HETATM   19  O1  UNL     1      -8.253  -0.455  -2.033  1.00  0.00    -0.326 OA
HETATM   20  C1  UNL     1      -8.235  -1.675  -2.761  1.00  0.00     0.181 C 
ENDBRANCH  16  19
BRANCH  17  21
HETATM   21  O4  UNL     1      -8.293   1.891  -0.632  1.00  0.00    -0.326 OA
HETATM   22  C28 UNL     1      -8.334   3.106   0.083  1.00  0.00     0.181 C 
ENDBRANCH  17  21
ENDBRANCH  12  13
ENDBRANCH  11  12
ENDBRANCH   9  11
ENDBRANCH   7   8
ENDBRANCH   1   7
BRANCH   5  23
HETATM   23  C14 UNL     1       2.930  -2.554   0.006  1.00  0.00     0.257 C 
HETATM   24  O3  UNL     1       3.239  -3.794   0.113  1.00  0.00    -0.267 OA
HETATM   25  N3  UNL     1       3.778  -1.543   0.498  1.00  0.00    -0.313 N 
HETATM   26  C15 UNL     1       5.023  -1.876   1.155  1.00  0.00     0.129 C 
HETATM   27  C24 UNL     1       3.420  -0.155   0.346  1.00  0.00     0.129 C 
HETATM   28  C16 UNL     1       5.678  -0.618   1.714  1.00  0.00     0.126 C 
HETATM   29  N4  UNL     1       5.710   0.429   0.732  1.00  0.00    -0.344 N 
HETATM   30  C23 UNL     1       4.661   0.534  -0.234  1.00  0.00     0.126 C 
BRANCH  29  31
HETATM   31  C17 UNL     1       6.769   1.347   0.719  1.00  0.00     0.056 A 
HETATM   32  C18 UNL     1       6.984   2.304  -0.251  1.00  0.00     0.017 A 
HETATM   33  C19 UNL     1       8.060   3.177  -0.191  1.00  0.00     0.002 A 
HETATM   34  C20 UNL     1       8.962   3.111   0.861  1.00  0.00     0.000 A 
HETATM   35  C21 UNL     1       8.764   2.168   1.831  1.00  0.00     0.002 A 
HETATM   36  C22 UNL     1       7.691   1.320   1.742  1.00  0.00     0.017 A 
ENDBRANCH  29  31
ENDBRANCH   5  23
TORSDOF 9
