REMARK  10 active torsions:
REMARK  status: ('A' for Active; 'I' for Inactive)
REMARK    1  A    between atoms: C2_2  and  C3_4 
REMARK    2  A    between atoms: C7_8  and  C8_9 
REMARK    3  A    between atoms: C8_9  and  C9_11 
REMARK    4  A    between atoms: C8_9  and  C17_22 
REMARK       I    between atoms: C9_11  and  N1_13 
REMARK    5  A    between atoms: N1_13  and  C10_14 
REMARK    6  A    between atoms: C10_14  and  C11_15 
REMARK    7  A    between atoms: C20_25  and  C21_26 
REMARK    8  A    between atoms: N2_28  and  C23_29 
REMARK    9  A    between atoms: C23_29  and  N3_31 
REMARK       I    between atoms: N4_34  and  C26_35 
REMARK   10  A    between atoms: C26_35  and  C27_37 
ROOT
HETATM    1  C3  UNL     1       0.671   2.958   0.164  1.00  0.00     0.036 A 
HETATM    2  C4  UNL     1       1.834   3.464  -0.406  1.00  0.00     0.003 A 
HETATM    3  C5  UNL     1       2.888   2.659  -0.742  1.00  0.00    -0.000 A 
HETATM    4  C6  UNL     1       2.787   1.314  -0.505  1.00  0.00    -0.001 A 
HETATM    5  C7  UNL     1       1.644   0.717   0.067  1.00  0.00     0.015 A 
HETATM    6  C20 UNL     1       0.606   1.570   0.386  1.00  0.00     0.015 A 
ENDROOT
BRANCH   6   7
HETATM    7  C21 UNL     1      -0.654   1.038   0.884  1.00  0.00     0.062 C 
HETATM    8  C22 UNL     1      -0.769  -0.298   1.429  1.00  0.00     0.052 C 
HETATM    9  N2  UNL     1      -1.772   1.584   0.358  1.00  0.00    -0.224 NA
BRANCH   9  10
HETATM   10  C23 UNL     1      -2.757   1.405  -0.569  1.00  0.00     0.198 C 
HETATM   11  S1  UNL     1      -3.954   2.607  -0.717  1.00  0.00    -0.039 SA
BRANCH  10  12
HETATM   12  N3  UNL     1      -2.953   0.331  -1.469  1.00  0.00    -0.321 N 
HETATM   13  C24 UNL     1      -4.073   0.347  -2.384  1.00  0.00     0.128 C 
HETATM   14  C25 UNL     1      -4.911  -0.879  -2.105  1.00  0.00     0.129 C 
HETATM   15  N4  UNL     1      -4.302  -1.760  -1.134  1.00  0.00    -0.313 N 
HETATM   16  C26 UNL     1      -5.038  -2.334  -0.060  1.00  0.00     0.259 C 
HETATM   17  C32 UNL     1      -2.896  -2.063  -1.261  1.00  0.00     0.129 C 
HETATM   18  O4  UNL     1      -4.456  -3.102   0.756  1.00  0.00    -0.267 OA
HETATM   19  C33 UNL     1      -2.064  -0.795  -1.491  1.00  0.00     0.128 C 
BRANCH  16  20
HETATM   20  C27 UNL     1      -6.449  -2.075   0.143  1.00  0.00     0.075 A 
HETATM   21  C28 UNL     1      -7.108  -1.233  -0.722  1.00  0.00     0.008 A 
HETATM   22  C29 UNL     1      -8.475  -0.967  -0.548  1.00  0.00     0.021 A 
HETATM   23  C30 UNL     1      -9.123  -1.561   0.490  1.00  0.00     0.099 A 
HETATM   24  N5  UNL     1      -8.478  -2.395   1.350  1.00  0.00    -0.242 NA
HETATM   25  C31 UNL     1      -7.149  -2.644   1.169  1.00  0.00     0.104 A 
ENDBRANCH  16  20
ENDBRANCH  10  12
ENDBRANCH   9  10
ENDBRANCH   6   7
BRANCH   1  26
HETATM   26  C2  UNL     1      -0.359   3.880   0.610  1.00  0.00     0.173 C 
HETATM   27  C1  UNL     1      -1.271   3.626   1.735  1.00  0.00     0.077 C 
HETATM   28  O1  UNL     1      -0.426   4.976  -0.055  1.00  0.00    -0.291 OA
ENDBRANCH   1  26
BRANCH   5  29
HETATM   29  C8  UNL     1       1.684  -0.743   0.300  1.00  0.00     0.217 C 
HETATM   30  O2  UNL     1       0.730  -1.496  -0.309  1.00  0.00    -0.212 OA
BRANCH  29  31
HETATM   31  C9  UNL     1       2.999  -1.233  -0.307  1.00  0.00     0.283 C 
HETATM   32  O3  UNL     1       3.049  -2.155  -1.144  1.00  0.00    -0.268 OA
HETATM   33  N1  UNL     1       4.228  -0.630   0.081  1.00  0.00    -0.231 NA
BRANCH  33  34
HETATM   34  C10 UNL     1       5.502  -1.055  -0.467  1.00  0.00     0.156 C 
BRANCH  34  35
HETATM   35  C11 UNL     1       6.595  -0.242   0.124  1.00  0.00     0.013 A 
HETATM   36  C12 UNL     1       6.348   0.739   1.055  1.00  0.00    -0.002 A 
HETATM   37  C13 UNL     1       7.355   1.489   1.605  1.00  0.00    -0.000 A 
HETATM   38  C14 UNL     1       8.641   1.218   1.185  1.00  0.00     0.001 A 
HETATM   39  C15 UNL     1       8.894   0.235   0.252  1.00  0.00     0.011 A 
HETATM   40  C16 UNL     1       7.895  -0.520  -0.304  1.00  0.00     0.056 A 
HETATM   41 CL1  UNL     1       8.185  -1.767  -1.486  1.00  0.00    -0.083 Cl
ENDBRANCH  34  35
ENDBRANCH  33  34
ENDBRANCH  29  31
BRANCH  29  42
HETATM   42  C17 UNL     1       1.863  -1.091   1.780  1.00  0.00     0.041 C 
HETATM   43  C18 UNL     1       1.896  -2.592   1.953  1.00  0.00     0.003 C 
HETATM   44  C19 UNL     1       3.140  -0.526   2.331  1.00  0.00     0.003 C 
ENDBRANCH  29  42
ENDBRANCH   5  29
TORSDOF 10
