REMARK  26 active torsions:
REMARK  status: ('A' for Active; 'I' for Inactive)
REMARK    1  A    between atoms: C2_2  and  C3_3 
REMARK    2  A    between atoms: C2_2  and  C31_37 
REMARK    3  A    between atoms: C3_3  and  C4_4 
REMARK    4  A    between atoms: C4_4  and  N1_5 
REMARK    5  A    between atoms: C9_11  and  C10_12 
REMARK    6  A    between atoms: N2_18  and  C16_19 
REMARK    7  A    between atoms: C16_19  and  C17_20 
REMARK    8  A    between atoms: C17_20  and  C18_21 
REMARK    9  A    between atoms: C18_21  and  C19_22 
REMARK   10  A    between atoms: C19_22  and  C20_23 
REMARK   11  A    between atoms: C20_23  and  C21_24 
REMARK   12  A    between atoms: C21_24  and  C22_25 
REMARK   13  A    between atoms: C22_25  and  C23_26 
REMARK   14  A    between atoms: C24_29  and  C26_31 
REMARK   15  A    between atoms: C26_31  and  O4_32 
REMARK   16  A    between atoms: O4_32  and  C27_33 
REMARK       I    between atoms: C31_37  and  N3_39 
REMARK   17  A    between atoms: N3_39  and  C32_40 
REMARK   18  A    between atoms: C32_40  and  C33_41 
REMARK   19  A    between atoms: C33_41  and  C34_42 
REMARK   20  A    between atoms: C34_42  and  C35_43 
REMARK   21  A    between atoms: C35_43  and  C36_44 
REMARK   22  A    between atoms: C36_44  and  C37_45 
REMARK   23  A    between atoms: C37_45  and  C38_46 
REMARK   24  A    between atoms: C38_46  and  C39_47 
REMARK   25  A    between atoms: C39_47  and  C40_48 
REMARK   26  A    between atoms: C40_48  and  C41_49 
ROOT
HETATM    1  N1  UNL     1      -0.561  -1.357   0.144  1.00  0.00    -0.301 N 
HETATM    2  C5  UNL     1      -0.860  -1.502  -1.244  1.00  0.00     0.260 C 
HETATM    3  O1  UNL     1      -0.036  -2.110  -1.953  1.00  0.00    -0.267 OA
HETATM    4  C6  UNL     1      -2.105  -0.936  -1.750  1.00  0.00     0.071 A 
HETATM    5  C7  UNL     1      -2.471  -1.035  -3.068  1.00  0.00     0.006 A 
HETATM    6  C8  UNL     1      -3.674  -0.457  -3.414  1.00  0.00    -0.004 A 
HETATM    7  C9  UNL     1      -4.495   0.196  -2.514  1.00  0.00    -0.021 A 
HETATM    8  C14 UNL     1      -4.102   0.279  -1.201  1.00  0.00     0.013 A 
HETATM    9  C15 UNL     1      -2.911  -0.280  -0.802  1.00  0.00     0.062 A 
HETATM   10  N2  UNL     1      -2.529  -0.184   0.536  1.00  0.00    -0.333 N 
HETATM   11  C24 UNL     1      -1.691  -1.295   1.054  1.00  0.00     0.162 C 
HETATM   12  C25 UNL     1      -1.256  -1.066   2.464  1.00  0.00     0.049 C 
ENDROOT
BRANCH   1  13
HETATM   13  C4  UNL     1       0.777  -1.271   0.664  1.00  0.00     0.107 C 
BRANCH  13  14
HETATM   14  C3  UNL     1       1.392  -2.580   1.036  1.00  0.00     0.034 C 
BRANCH  14  15
HETATM   15  C2  UNL     1       2.783  -2.317   1.554  1.00  0.00     0.083 C 
HETATM   16  C1  UNL     1       2.694  -1.417   2.756  1.00  0.00     0.010 C 
BRANCH  15  17
HETATM   17  C31 UNL     1       3.721  -1.878   0.523  1.00  0.00     0.251 C 
HETATM   18  O5  UNL     1       3.249  -1.610  -0.630  1.00  0.00    -0.271 OA
HETATM   19  N3  UNL     1       5.117  -1.733   0.723  1.00  0.00    -0.238 NA
BRANCH  19  20
HETATM   20  C32 UNL     1       6.023  -1.290  -0.340  1.00  0.00     0.129 C 
BRANCH  20  21
HETATM   21  C33 UNL     1       7.411  -1.262   0.233  1.00  0.00     0.026 C 
BRANCH  21  22
HETATM   22  C34 UNL     1       8.384  -0.823  -0.815  1.00  0.00     0.002 C 
BRANCH  22  23
HETATM   23  C35 UNL     1       8.037   0.543  -1.305  1.00  0.00     0.000 C 
BRANCH  23  24
HETATM   24  C36 UNL     1       8.029   1.618  -0.269  1.00  0.00     0.000 C 
BRANCH  24  25
HETATM   25  C37 UNL     1       9.410   1.709   0.344  1.00  0.00     0.000 C 
BRANCH  25  26
HETATM   26  C38 UNL     1       9.812   0.402   0.998  1.00  0.00     0.000 C 
BRANCH  26  27
HETATM   27  C39 UNL     1      11.194   0.559   1.582  1.00  0.00     0.002 C 
BRANCH  27  28
HETATM   28  C40 UNL     1      12.139   0.887   0.454  1.00  0.00     0.041 C 
BRANCH  28  29
HETATM   29  C41 UNL     1      11.792   2.146  -0.278  1.00  0.00     0.338 C 
HETATM   30  N4  UNL     1      11.789   3.330   0.552  1.00  0.00     0.618 N 
ENDBRANCH  28  29
ENDBRANCH  27  28
ENDBRANCH  26  27
ENDBRANCH  25  26
ENDBRANCH  24  25
ENDBRANCH  23  24
ENDBRANCH  22  23
ENDBRANCH  21  22
ENDBRANCH  20  21
ENDBRANCH  19  20
ENDBRANCH  15  17
ENDBRANCH  14  15
ENDBRANCH  13  14
ENDBRANCH   1  13
BRANCH  11  31
HETATM   31  C26 UNL     1      -2.421  -2.599   0.998  1.00  0.00     0.184 C 
BRANCH  31  32
HETATM   32  O4  UNL     1      -3.584  -2.654   1.729  1.00  0.00    -0.355 OA
BRANCH  32  33
HETATM   33  C27 UNL     1      -4.146  -3.910   1.588  1.00  0.00     0.093 C 
HETATM   34  C28 UNL     1      -3.185  -4.995   2.088  1.00  0.00     0.030 C 
HETATM   35  C29 UNL     1      -5.419  -4.064   2.414  1.00  0.00     0.030 C 
HETATM   36  C30 UNL     1      -4.439  -4.210   0.125  1.00  0.00     0.030 C 
ENDBRANCH  32  33
ENDBRANCH  31  32
ENDBRANCH  11  31
BRANCH  10  37
HETATM   37  C16 UNL     1      -2.812   0.848   1.497  1.00  0.00     0.103 C 
BRANCH  37  38
HETATM   38  C17 UNL     1      -3.743   0.327   2.580  1.00  0.00     0.024 C 
BRANCH  38  39
HETATM   39  C18 UNL     1      -5.123   0.171   1.925  1.00  0.00     0.002 C 
BRANCH  39  40
HETATM   40  C19 UNL     1      -5.709   1.525   1.667  1.00  0.00     0.000 C 
BRANCH  40  41
HETATM   41  C20 UNL     1      -4.935   2.487   0.874  1.00  0.00     0.001 C 
BRANCH  41  42
HETATM   42  C21 UNL     1      -5.592   3.818   0.679  1.00  0.00     0.011 C 
BRANCH  42  43
HETATM   43  C22 UNL     1      -4.720   4.737  -0.131  1.00  0.00     0.098 C 
BRANCH  43  44
HETATM   44  C23 UNL     1      -5.357   6.061  -0.321  1.00  0.00     0.185 C 
HETATM   45  O2  UNL     1      -4.797   6.976  -0.958  1.00  0.00    -0.647 OA
HETATM   46  O3  UNL     1      -6.627   6.322   0.218  1.00  0.00    -0.647 OA
ENDBRANCH  43  44
ENDBRANCH  42  43
ENDBRANCH  41  42
ENDBRANCH  40  41
ENDBRANCH  39  40
ENDBRANCH  38  39
ENDBRANCH  37  38
ENDBRANCH  10  37
BRANCH   7  47
HETATM   47  C10 UNL     1      -5.796   0.801  -2.985  1.00  0.00     0.019 C 
HETATM   48  C11 UNL     1      -6.679   1.020  -1.773  1.00  0.00     0.004 C 
HETATM   49  C12 UNL     1      -6.431  -0.089  -4.015  1.00  0.00     0.004 C 
HETATM   50  C13 UNL     1      -5.546   2.160  -3.628  1.00  0.00     0.004 C 
ENDBRANCH   7  47
TORSDOF 26
