REMARK  10 active torsions:
REMARK  status: ('A' for Active; 'I' for Inactive)
REMARK    1  A    between atoms: O1_2  and  C2_3 
REMARK    2  A    between atoms: C7_8  and  C8_9 
REMARK    3  A    between atoms: C9_10  and  C10_11 
REMARK    4  A    between atoms: C10_11  and  C11_13 
REMARK    5  A    between atoms: C11_13  and  N1_14 
REMARK    6  A    between atoms: C13_17  and  C14_18 
REMARK    7  A    between atoms: C17_21  and  C18_22 
REMARK    8  A    between atoms: C18_22  and  N2_24 
REMARK    9  A    between atoms: C23_30  and  C24_31 
REMARK   10  A    between atoms: C39_46  and  C40_47 
ROOT
HETATM    1  N1  UNL     1      -1.988   2.197   0.562  1.00  0.00    -0.295 N 
HETATM    2  C12 UNL     1      -1.467   1.779  -0.705  1.00  0.00     0.241 C 
HETATM    3  O3  UNL     1      -1.309   2.726  -1.513  1.00  0.00    -0.272 OA
HETATM    4  C13 UNL     1      -1.096   0.424  -1.184  1.00  0.00     0.106 C 
HETATM    5  C37 UNL     1      -2.232  -0.542  -1.146  1.00  0.00     0.040 C 
HETATM    6  C38 UNL     1      -2.805  -0.816   0.170  1.00  0.00    -0.020 C 
HETATM    7  C39 UNL     1      -3.246  -2.054   0.387  1.00  0.00    -0.004 C 
HETATM    8  C46 UNL     1      -2.990   0.059   1.322  1.00  0.00     0.007 C 
HETATM    9  C47 UNL     1      -2.724   1.374   1.445  1.00  0.00     0.040 C 
HETATM   10  C48 UNL     1      -3.133   2.276   2.529  1.00  0.00     0.044 C 
HETATM   11  C49 UNL     1      -4.574   1.958   2.883  1.00  0.00     0.011 C 
HETATM   12  C50 UNL     1      -4.688   0.900   3.933  1.00  0.00     0.027 C 
HETATM   13  C51 UNL     1      -4.277  -0.442   3.492  1.00  0.00    -0.022 A 
HETATM   14  C52 UNL     1      -4.720  -1.393   4.371  1.00  0.00    -0.004 A 
HETATM   15  C53 UNL     1      -4.432  -2.715   4.125  1.00  0.00    -0.000 A 
HETATM   16  C54 UNL     1      -3.714  -3.058   3.018  1.00  0.00    -0.000 A 
HETATM   17  C55 UNL     1      -3.236  -2.125   2.085  1.00  0.00    -0.000 A 
HETATM   18  C56 UNL     1      -3.547  -0.803   2.368  1.00  0.00    -0.003 A 
ENDROOT
BRANCH   4  19
HETATM   19  C14 UNL     1       0.121  -0.083  -0.492  1.00  0.00    -0.013 A 
HETATM   20  C15 UNL     1       0.216  -1.317   0.095  1.00  0.00    -0.004 A 
HETATM   21  C16 UNL     1       1.392  -1.675   0.711  1.00  0.00    -0.003 A 
HETATM   22  C17 UNL     1       2.483  -0.829   0.758  1.00  0.00    -0.002 A 
HETATM   23  C35 UNL     1       2.375   0.405   0.166  1.00  0.00    -0.003 A 
HETATM   24  C36 UNL     1       1.200   0.762  -0.450  1.00  0.00    -0.004 A 
BRANCH  22  25
HETATM   25  C18 UNL     1       3.762  -1.175   1.411  1.00  0.00     0.111 C 
HETATM   26  C19 UNL     1       3.513  -2.100   2.584  1.00  0.00     0.030 C 
BRANCH  25  27
HETATM   27  N2  UNL     1       4.631  -1.773   0.426  1.00  0.00    -0.293 N 
HETATM   28  C20 UNL     1       4.456  -2.976  -0.124  1.00  0.00     0.180 A 
HETATM   29  N3  UNL     1       5.441  -3.224  -0.997  1.00  0.00    -0.227 NA
HETATM   30  C21 UNL     1       6.262  -2.163  -1.006  1.00  0.00     0.094 A 
HETATM   31  C22 UNL     1       5.740  -1.257  -0.106  1.00  0.00     0.155 A 
HETATM   32  C33 UNL     1       7.499  -2.052  -1.863  1.00  0.00     0.043 C 
HETATM   33  N4  UNL     1       6.302   0.018   0.197  1.00  0.00    -0.251 NA
HETATM   34  C23 UNL     1       6.990   0.985  -0.622  1.00  0.00     0.127 C 
HETATM   35  C30 UNL     1       7.659   0.316  -1.777  1.00  0.00     0.027 C 
HETATM   36  C31 UNL     1       6.723  -0.053  -2.885  1.00  0.00     0.003 C 
HETATM   37  C34 UNL     1       8.364  -0.926  -1.328  1.00  0.00     0.008 C 
HETATM   38  C32 UNL     1       7.079  -1.497  -3.219  1.00  0.00     0.006 C 
BRANCH  34  39
HETATM   39  C24 UNL     1       7.934   1.750   0.198  1.00  0.00    -0.000 A 
HETATM   40  C25 UNL     1       9.219   1.990  -0.262  1.00  0.00    -0.002 A 
HETATM   41  C26 UNL     1      10.128   2.696   0.468  1.00  0.00    -0.000 A 
HETATM   42  C27 UNL     1       9.734   3.180   1.704  1.00  0.00    -0.000 A 
HETATM   43  C28 UNL     1       8.472   2.957   2.181  1.00  0.00    -0.000 A 
HETATM   44  C29 UNL     1       7.574   2.242   1.426  1.00  0.00    -0.002 A 
ENDBRANCH  34  39
ENDBRANCH  25  27
ENDBRANCH  22  25
ENDBRANCH   4  19
BRANCH   1  45
HETATM   45  C11 UNL     1      -1.760   3.533   0.996  1.00  0.00     0.177 C 
BRANCH  45  46
HETATM   46  C10 UNL     1      -2.769   4.523   0.639  1.00  0.00     0.196 C 
HETATM   47  O2  UNL     1      -2.571   5.716   0.982  1.00  0.00    -0.289 OA
BRANCH  46  48
HETATM   48  C9  UNL     1      -3.962   4.205  -0.077  1.00  0.00     0.040 C 
HETATM   49  C8  UNL     1      -4.374   3.055  -0.530  1.00  0.00     0.005 C 
BRANCH  49  50
HETATM   50  C7  UNL     1      -5.639   2.904  -1.252  1.00  0.00     0.022 A 
HETATM   51  C2  UNL     1      -6.038   1.669  -1.709  1.00  0.00     0.094 A 
HETATM   52  C3  UNL     1      -7.226   1.511  -2.394  1.00  0.00     0.024 A 
HETATM   53  C4  UNL     1      -8.065   2.585  -2.650  1.00  0.00     0.002 A 
HETATM   54  C5  UNL     1      -7.667   3.827  -2.191  1.00  0.00     0.000 A 
HETATM   55  C6  UNL     1      -6.474   3.981  -1.504  1.00  0.00     0.002 A 
BRANCH  51  56
HETATM   56  O1  UNL     1      -5.258   0.544  -1.496  1.00  0.00    -0.328 OA
HETATM   57  C1  UNL     1      -5.647  -0.727  -1.955  1.00  0.00     0.181 C 
ENDBRANCH  51  56
ENDBRANCH  49  50
ENDBRANCH  46  48
ENDBRANCH  45  46
ENDBRANCH   1  45
BRANCH   7  58
HETATM   58  C40 UNL     1      -3.180  -3.115  -0.610  1.00  0.00    -0.000 A 
HETATM   59  C41 UNL     1      -4.176  -4.060  -0.719  1.00  0.00     0.001 A 
HETATM   60  C42 UNL     1      -4.116  -5.077  -1.675  1.00  0.00     0.011 A 
HETATM   61  C43 UNL     1      -3.044  -5.158  -2.541  1.00  0.00     0.058 A 
HETATM   62 CL1  UNL     1      -2.965  -6.441  -3.748  1.00  0.00    -0.082 Cl
HETATM   63  C44 UNL     1      -2.045  -4.218  -2.439  1.00  0.00     0.011 A 
HETATM   64  C45 UNL     1      -2.116  -3.205  -1.478  1.00  0.00     0.001 A 
ENDBRANCH   7  58
TORSDOF 10
