REMARK  12 active torsions:
REMARK  status: ('A' for Active; 'I' for Inactive)
REMARK    1  A    between atoms: O1_2  and  C2_3 
REMARK    2  A    between atoms: C7_8  and  C8_9 
REMARK    3  A    between atoms: C8_9  and  N1_10 
REMARK    4  A    between atoms: N1_10  and  C9_11 
REMARK    5  A    between atoms: C9_11  and  C10_12 
REMARK    6  A    between atoms: C10_12  and  C11_14 
REMARK    7  A    between atoms: C15_18  and  C16_19 
REMARK    8  A    between atoms: C20_23  and  C21_24 
REMARK       I    between atoms: C21_24  and  N2_26 
REMARK    9  A    between atoms: N2_26  and  C22_27 
REMARK   10  A    between atoms: C22_27  and  C23_28 
REMARK   11  A    between atoms: C27_32  and  O4_33 
REMARK   12  A    between atoms: O4_33  and  C28_34 
ROOT
HETATM    1  C16 UNL     1      -0.526  -2.347  -3.149  1.00  0.00     0.000 A 
HETATM    2  C17 UNL     1      -0.071  -2.992  -4.276  1.00  0.00     0.000 A 
HETATM    3  C18 UNL     1       1.203  -2.757  -4.734  1.00  0.00     0.000 A 
HETATM    4  C19 UNL     1       2.033  -1.864  -4.055  1.00  0.00     0.005 A 
HETATM    5  C20 UNL     1       1.598  -1.211  -2.928  1.00  0.00     0.058 A 
HETATM    6  C35 UNL     1       0.320  -1.459  -2.485  1.00  0.00     0.005 A 
ENDROOT
BRANCH   1   7
HETATM    7  C15 UNL     1      -1.854  -2.533  -2.597  1.00  0.00     0.000 A 
HETATM    8  C14 UNL     1      -2.509  -3.738  -2.704  1.00  0.00     0.000 A 
HETATM    9  C13 UNL     1      -3.790  -3.895  -2.163  1.00  0.00     0.000 A 
HETATM   10  C12 UNL     1      -4.362  -2.807  -1.526  1.00  0.00     0.003 A 
HETATM   11  C11 UNL     1      -3.720  -1.602  -1.413  1.00  0.00     0.037 A 
HETATM   12  C36 UNL     1      -2.463  -1.464  -1.950  1.00  0.00     0.003 A 
BRANCH  11  13
HETATM   13  C10 UNL     1      -4.368  -0.502  -0.737  1.00  0.00     0.209 C 
HETATM   14  O2  UNL     1      -3.773   0.606  -0.636  1.00  0.00    -0.289 OA
BRANCH  13  15
HETATM   15  C9  UNL     1      -5.717  -0.660  -0.164  1.00  0.00     0.359 C 
BRANCH  15  16
HETATM   16  N1  UNL     1      -6.166   0.568   0.465  1.00  0.00     0.352 N 
BRANCH  16  17
HETATM   17  C8  UNL     1      -7.491   0.395   1.022  1.00  0.00     0.319 C 
BRANCH  17  18
HETATM   18  C7  UNL     1      -7.906   1.657   1.651  1.00  0.00     0.036 A 
HETATM   19  C2  UNL     1      -9.129   1.747   2.251  1.00  0.00     0.092 A 
HETATM   20  C3  UNL     1      -9.504   2.941   2.839  1.00  0.00     0.024 A 
HETATM   21  C4  UNL     1      -8.670   4.051   2.835  1.00  0.00     0.002 A 
HETATM   22  C5  UNL     1      -7.459   3.918   2.226  1.00  0.00    -0.000 A 
HETATM   23  C6  UNL     1      -7.073   2.738   1.638  1.00  0.00    -0.000 A 
BRANCH  19  24
HETATM   24  O1  UNL     1     -10.017   0.663   2.289  1.00  0.00    -0.328 OA
HETATM   25  C1  UNL     1     -11.281   0.764   2.912  1.00  0.00     0.181 C 
ENDBRANCH  19  24
ENDBRANCH  17  18
ENDBRANCH  16  17
ENDBRANCH  15  16
ENDBRANCH  13  15
ENDBRANCH  11  13
ENDBRANCH   1   7
BRANCH   5  26
HETATM   26  C21 UNL     1       2.449  -0.276  -2.210  1.00  0.00     0.275 C 
HETATM   27  O3  UNL     1       2.026   0.294  -1.161  1.00  0.00    -0.266 OA
HETATM   28  N2  UNL     1       3.774   0.068  -2.606  1.00  0.00    -0.229 NA
BRANCH  28  29
HETATM   29  C22 UNL     1       4.589   1.004  -1.864  1.00  0.00     0.155 C 
BRANCH  29  30
HETATM   30  C23 UNL     1       5.141   0.435  -0.633  1.00  0.00     0.004 A 
HETATM   31  C24 UNL     1       4.916  -0.901  -0.380  1.00  0.00    -0.002 A 
HETATM   32  C25 UNL     1       5.369  -1.568   0.729  1.00  0.00     0.002 A 
HETATM   33  C26 UNL     1       6.103  -0.839   1.656  1.00  0.00     0.025 A 
HETATM   34  C27 UNL     1       6.349   0.514   1.433  1.00  0.00     0.100 A 
HETATM   35  C34 UNL     1       5.869   1.150   0.292  1.00  0.00     0.022 A 
BRANCH  34  36
HETATM   36  O4  UNL     1       7.088   1.176   2.402  1.00  0.00    -0.307 OA
BRANCH  36  37
HETATM   37  C28 UNL     1       8.470   1.279   2.378  1.00  0.00     0.100 A 
HETATM   38  C29 UNL     1       9.294   0.344   2.982  1.00  0.00     0.025 A 
HETATM   39  C30 UNL     1      10.655   0.546   2.897  1.00  0.00     0.002 A 
HETATM   40  C31 UNL     1      11.201   1.633   2.239  1.00  0.00     0.000 A 
HETATM   41  C32 UNL     1      10.378   2.576   1.630  1.00  0.00     0.002 A 
HETATM   42  C33 UNL     1       9.022   2.348   1.731  1.00  0.00     0.025 A 
ENDBRANCH  36  37
ENDBRANCH  34  36
ENDBRANCH  29  30
ENDBRANCH  28  29
ENDBRANCH   5  26
TORSDOF 12
