REMARK  2 active torsions:
REMARK  status: ('A' for Active; 'I' for Inactive)
REMARK    1  A    between atoms: C7_8  and  C8_9 
REMARK    2  A    between atoms: C8_9  and  C9_10 
ROOT
HETATM    1  C1  UNL     1      -5.283   1.032   2.753  1.00  0.00     0.031 C 
HETATM    2  C2  UNL     1      -3.990   0.543   2.194  1.00  0.00    -0.022 A 
HETATM    3  C3  UNL     1      -3.085  -0.190   2.964  1.00  0.00    -0.003 A 
HETATM    4  C4  UNL     1      -1.921  -0.590   2.344  1.00  0.00     0.018 A 
HETATM    5  C5  UNL     1      -1.610  -0.311   1.030  1.00  0.00     0.078 A 
HETATM    6  N1  UNL     1      -0.398  -0.740   0.428  1.00  0.00    -0.246 NA
HETATM    7  C6  UNL     1      -0.083  -0.448  -0.925  1.00  0.00     0.077 A 
HETATM    8  C7  UNL     1       1.085  -0.859  -1.524  1.00  0.00     0.019 A 
HETATM    9  C15 UNL     1       1.335  -0.548  -2.845  1.00  0.00     0.097 A 
HETATM   10  N2  UNL     1       0.415   0.160  -3.519  1.00  0.00    -0.243 NA
HETATM   11  C16 UNL     1      -0.732   0.589  -3.006  1.00  0.00     0.097 A 
HETATM   12  C17 UNL     1      -0.995   0.273  -1.648  1.00  0.00     0.019 A 
HETATM   13  C18 UNL     1      -2.263   0.757  -1.117  1.00  0.00     0.057 A 
HETATM   14  C19 UNL     1      -2.504   0.410   0.280  1.00  0.00    -0.000 A 
HETATM   15  C20 UNL     1      -3.706   0.832   0.896  1.00  0.00    -0.007 A 
ENDROOT
BRANCH   8  16
HETATM   16  C8  UNL     1       2.086  -1.646  -0.722  1.00  0.00     0.056 C 
BRANCH  16  17
HETATM   17  C9  UNL     1       2.829  -0.744   0.184  1.00  0.00    -0.018 A 
HETATM   18  C10 UNL     1       2.454  -0.430   1.462  1.00  0.00    -0.004 A 
HETATM   19  C11 UNL     1       3.220   0.434   2.251  1.00  0.00    -0.000 A 
HETATM   20  C12 UNL     1       4.367   0.969   1.717  1.00  0.00    -0.000 A 
HETATM   21  C13 UNL     1       4.778   0.681   0.445  1.00  0.00    -0.000 A 
HETATM   22  C14 UNL     1       4.002  -0.173  -0.309  1.00  0.00    -0.004 A 
ENDBRANCH  16  17
ENDBRANCH   8  16
TORSDOF 2
