REMARK  8 active torsions:
REMARK  status: ('A' for Active; 'I' for Inactive)
REMARK    1  A    between atoms: C7_7  and  C8_8 
REMARK       I    between atoms: C8_8  and  N1_10 
REMARK    2  A    between atoms: N2_13  and  C11_14 
REMARK    3  A    between atoms: N3_22  and  C18_23 
REMARK    4  A    between atoms: C18_23  and  C19_24 
REMARK    5  A    between atoms: C26_31  and  O3_32 
REMARK    6  A    between atoms: O3_32  and  C27_33 
REMARK       I    between atoms: N4_36  and  C30_37 
REMARK    7  A    between atoms: C30_37  and  C31_39 
REMARK    8  A    between atoms: C31_39  and  C32_40 
ROOT
HETATM    1  C11 UNL     1      -2.823  -1.909  -0.123  1.00  0.00     0.086 C 
HETATM    2  C12 UNL     1      -3.425  -2.375  -1.435  1.00  0.00     0.054 C 
HETATM    3  C13 UNL     1      -2.597  -3.610  -1.810  1.00  0.00     0.144 C 
HETATM    4  O2  UNL     1      -1.374  -3.197  -2.264  1.00  0.00    -0.356 OA
HETATM    5  C14 UNL     1      -0.782  -2.171  -1.541  1.00  0.00     0.121 C 
HETATM    6  C15 UNL     1      -1.001  -0.910  -2.350  1.00  0.00     0.032 C 
HETATM    7  C16 UNL     1      -1.308  -2.075  -0.147  1.00  0.00     0.102 C 
HETATM    8  C17 UNL     1      -1.024  -3.420   0.530  1.00  0.00     0.257 C 
HETATM    9  N3  UNL     1      -0.783  -3.095   1.922  1.00  0.00     0.144 N 
HETATM   10  C25 UNL     1      -0.129  -1.801   1.915  1.00  0.00     0.280 C 
HETATM   11  C26 UNL     1      -0.693  -1.076   0.728  1.00  0.00     0.154 C 
ENDROOT
BRANCH   1  12
HETATM   12  N2  UNL     1      -3.212  -0.602   0.280  1.00  0.00    -0.367 N 
HETATM   13  C10 UNL     1      -2.826   0.465  -0.597  1.00  0.00     0.122 C 
HETATM   14  C9  UNL     1      -2.756   1.750   0.240  1.00  0.00     0.128 C 
HETATM   15  N1  UNL     1      -4.078   1.946   0.774  1.00  0.00    -0.313 N 
HETATM   16  C8  UNL     1      -4.701   3.205   0.640  1.00  0.00     0.257 C 
HETATM   17  C41 UNL     1      -4.743   0.857   1.438  1.00  0.00     0.128 C 
HETATM   18  O1  UNL     1      -4.118   4.154   0.062  1.00  0.00    -0.267 OA
HETATM   19  C40 UNL     1      -4.525  -0.479   0.829  1.00  0.00     0.122 C 
BRANCH  16  20
HETATM   20  C7  UNL     1      -6.031   3.447   1.161  1.00  0.00     0.052 A 
HETATM   21  C2  UNL     1      -7.117   3.205   0.340  1.00  0.00    -0.017 A 
HETATM   22  C1  UNL     1      -6.877   2.704  -1.052  1.00  0.00     0.031 C 
HETATM   23  C3  UNL     1      -8.384   3.428   0.818  1.00  0.00    -0.004 A 
HETATM   24  C4  UNL     1      -8.580   3.887   2.095  1.00  0.00    -0.000 A 
HETATM   25  C5  UNL     1      -7.487   4.124   2.903  1.00  0.00     0.000 A 
HETATM   26  C6  UNL     1      -6.208   3.908   2.448  1.00  0.00     0.004 A 
ENDBRANCH  16  20
ENDBRANCH   1  12
BRANCH  11  27
HETATM   27  O3  UNL     1      -0.013  -0.039   0.238  1.00  0.00    -0.357 OA
BRANCH  27  28
HETATM   28  C27 UNL     1       1.099  -0.243  -0.526  1.00  0.00     0.119 C 
HETATM   29  C28 UNL     1       2.199  -0.977   0.133  1.00  0.00     0.054 C 
HETATM   30  C29 UNL     1       3.580  -0.576  -0.157  1.00  0.00     0.107 C 
HETATM   31  N4  UNL     1       3.757   0.461  -1.112  1.00  0.00    -0.320 N 
HETATM   32  C30 UNL     1       5.002   1.134  -1.201  1.00  0.00     0.238 C 
HETATM   33  C38 UNL     1       2.696   0.860  -2.008  1.00  0.00     0.107 C 
HETATM   34  O4  UNL     1       5.160   2.050  -2.046  1.00  0.00    -0.272 OA
HETATM   35  C39 UNL     1       1.476   1.083  -1.141  1.00  0.00     0.054 C 
BRANCH  32  36
HETATM   36  C31 UNL     1       6.134   0.774  -0.306  1.00  0.00     0.114 C 
BRANCH  36  37
HETATM   37  C32 UNL     1       7.281   1.642  -0.634  1.00  0.00    -0.013 A 
HETATM   38  C33 UNL     1       7.473   2.860  -0.011  1.00  0.00    -0.004 A 
HETATM   39  C34 UNL     1       8.574   3.599  -0.386  1.00  0.00    -0.000 A 
HETATM   40  C35 UNL     1       9.478   3.182  -1.342  1.00  0.00    -0.000 A 
HETATM   41  C36 UNL     1       9.262   1.969  -1.944  1.00  0.00    -0.000 A 
HETATM   42  C37 UNL     1       8.175   1.216  -1.588  1.00  0.00    -0.004 A 
ENDBRANCH  36  37
ENDBRANCH  32  36
ENDBRANCH  27  28
ENDBRANCH  11  27
BRANCH   9  43
HETATM   43  C18 UNL     1       0.095  -4.083   2.488  1.00  0.00     0.277 C 
BRANCH  43  44
HETATM   44  C19 UNL     1       1.415  -4.170   1.823  1.00  0.00     0.011 A 
HETATM   45  C20 UNL     1       2.483  -3.493   2.377  1.00  0.00    -0.002 A 
HETATM   46  C21 UNL     1       3.743  -3.526   1.816  1.00  0.00    -0.000 A 
HETATM   47  C22 UNL     1       3.967  -4.256   0.658  1.00  0.00    -0.000 A 
HETATM   48  C23 UNL     1       2.908  -4.936   0.095  1.00  0.00    -0.000 A 
HETATM   49  C24 UNL     1       1.639  -4.892   0.676  1.00  0.00    -0.002 A 
ENDBRANCH  43  44
ENDBRANCH   9  43
TORSDOF 8
