REMARK  9 active torsions:
REMARK  status: ('A' for Active; 'I' for Inactive)
REMARK    1  A    between atoms: C7_7  and  C8_8 
REMARK    2  A    between atoms: C8_8  and  N1_9 
REMARK    3  A    between atoms: C8_8  and  C24_27 
REMARK       I    between atoms: N1_9  and  C9_10 
REMARK    4  A    between atoms: C9_10  and  C10_12 
REMARK    5  A    between atoms: C10_12  and  C11_13 
REMARK    6  A    between atoms: N2_16  and  C14_17 
REMARK    7  A    between atoms: C14_17  and  C15_18 
REMARK    8  A    between atoms: C15_18  and  C16_19 
REMARK       I    between atoms: N3_30  and  C27_31 
REMARK    9  A    between atoms: C27_31  and  C28_33 
ROOT
HETATM    1  C8  UNL     1      -0.605  -1.402   0.108  1.00  0.00     0.076 C 
ENDROOT
BRANCH   1   2
HETATM    2  C7  UNL     1      -1.039  -0.990   1.433  1.00  0.00     0.013 A 
HETATM    3  C2  UNL     1      -0.617  -1.600   2.579  1.00  0.00    -0.020 A 
HETATM    4  C1  UNL     1       0.352  -2.765   2.533  1.00  0.00     0.031 C 
HETATM    5  C3  UNL     1      -1.093  -1.145   3.792  1.00  0.00    -0.004 A 
HETATM    6  C4  UNL     1      -1.987  -0.086   3.901  1.00  0.00    -0.000 A 
HETATM    7  C5  UNL     1      -2.397   0.509   2.722  1.00  0.00     0.000 A 
HETATM    8  C6  UNL     1      -1.927   0.059   1.534  1.00  0.00     0.001 A 
ENDBRANCH   1   2
BRANCH   1   9
HETATM    9  N1  UNL     1       0.766  -1.757  -0.057  1.00  0.00    -0.212 NA
HETATM   10  C9  UNL     1       1.907  -1.165   0.463  1.00  0.00     0.256 C 
HETATM   11  O1  UNL     1       1.748  -0.152   1.223  1.00  0.00    -0.270 OA
BRANCH  10  12
HETATM   12  C10 UNL     1       3.293  -1.624   0.200  1.00  0.00     0.090 C 
BRANCH  12  13
HETATM   13  C11 UNL     1       4.343  -0.874   0.880  1.00  0.00     0.013 C 
HETATM   14  C12 UNL     1       4.407   0.575   0.588  1.00  0.00     0.036 C 
HETATM   15  C13 UNL     1       4.978   1.382   1.744  1.00  0.00     0.250 C 
HETATM   16  N2  UNL     1       6.102   0.709   2.363  1.00  0.00     0.137 N 
HETATM   17  C22 UNL     1       5.826  -0.611   2.845  1.00  0.00     0.250 C 
HETATM   18  C23 UNL     1       4.497  -1.141   2.327  1.00  0.00     0.036 C 
BRANCH  16  19
HETATM   19  C14 UNL     1       7.318   0.867   1.619  1.00  0.00     0.255 C 
BRANCH  19  20
HETATM   20  C15 UNL     1       7.278   0.165   0.275  1.00  0.00     0.062 C 
BRANCH  20  21
HETATM   21  C16 UNL     1       8.582   0.413  -0.380  1.00  0.00    -0.020 A 
HETATM   22  C17 UNL     1       9.684  -0.403  -0.288  1.00  0.00    -0.004 A 
HETATM   23  C18 UNL     1      10.867  -0.053  -0.943  1.00  0.00    -0.000 A 
HETATM   24  C19 UNL     1      10.920   1.101  -1.672  1.00  0.00    -0.000 A 
HETATM   25  C20 UNL     1       9.823   1.965  -1.797  1.00  0.00    -0.000 A 
HETATM   26  C21 UNL     1       8.695   1.553  -1.125  1.00  0.00    -0.004 A 
ENDBRANCH  20  21
ENDBRANCH  19  20
ENDBRANCH  16  19
ENDBRANCH  12  13
ENDBRANCH  10  12
ENDBRANCH   1   9
BRANCH   1  27
HETATM   27  C24 UNL     1      -1.188  -0.669  -1.043  1.00  0.00    -0.023 C 
HETATM   28  C25 UNL     1      -0.964   0.766  -1.149  1.00  0.00     0.048 C 
HETATM   29  C26 UNL     1      -2.062   1.710  -0.884  1.00  0.00     0.109 C 
HETATM   30  N3  UNL     1      -3.341   1.152  -1.236  1.00  0.00    -0.316 N 
HETATM   31  C27 UNL     1      -4.518   1.720  -0.725  1.00  0.00     0.257 C 
HETATM   32  C38 UNL     1      -3.367   0.010  -2.105  1.00  0.00     0.109 C 
HETATM   33  O2  UNL     1      -4.436   2.741   0.058  1.00  0.00    -0.267 OA
HETATM   34  C39 UNL     1      -2.531  -1.098  -1.469  1.00  0.00     0.048 C 
BRANCH  31  35
HETATM   35  C28 UNL     1      -5.859   1.231  -1.018  1.00  0.00     0.056 A 
HETATM   36  C29 UNL     1      -6.958   1.831  -0.443  1.00  0.00     0.005 A 
HETATM   37  C30 UNL     1      -8.231   1.400  -0.691  1.00  0.00     0.000 A 
HETATM   38  C31 UNL     1      -8.489   0.339  -1.531  1.00  0.00     0.000 A 
HETATM   39  C32 UNL     1      -9.763  -0.107  -1.799  1.00  0.00     0.000 A 
HETATM   40  C36 UNL     1      -7.384  -0.282  -2.125  1.00  0.00     0.000 A 
HETATM   41  C33 UNL     1     -10.014  -1.165  -2.647  1.00  0.00     0.000 A 
HETATM   42  C34 UNL     1      -8.915  -1.774  -3.232  1.00  0.00     0.000 A 
HETATM   43  C35 UNL     1      -7.621  -1.330  -2.967  1.00  0.00     0.000 A 
HETATM   44  C37 UNL     1      -6.081   0.170  -1.863  1.00  0.00     0.005 A 
ENDBRANCH  31  35
ENDBRANCH   1  27
TORSDOF 9
