REMARK  6 active torsions:
REMARK  status: ('A' for Active; 'I' for Inactive)
REMARK    1  A    between atoms: C7_7  and  N1_8 
REMARK    2  A    between atoms: N1_8  and  C8_9 
REMARK    3  A    between atoms: C8_9  and  C9_10 
REMARK    4  A    between atoms: C8_9  and  C16_18 
REMARK    5  A    between atoms: C9_10  and  S1_11 
REMARK    6  A    between atoms: S1_11  and  C10_12 
ROOT
HETATM    1  C8  UNL     1      -0.158   0.467  -0.398  1.00  0.00     0.062 C 
ENDROOT
BRANCH   1   2
HETATM    2  N1  UNL     1      -0.812  -0.707  -0.823  1.00  0.00    -0.250 NA
BRANCH   2   3
HETATM    3  C7  UNL     1      -1.669  -1.538  -0.112  1.00  0.00     0.077 A 
HETATM    4  C2  UNL     1      -2.219  -2.651  -0.711  1.00  0.00    -0.004 A 
HETATM    5  C1  UNL     1      -1.853  -2.911  -2.134  1.00  0.00     0.033 C 
HETATM    6  C3  UNL     1      -3.084  -3.508  -0.024  1.00  0.00    -0.003 A 
HETATM    7  C4  UNL     1      -3.414  -3.257   1.290  1.00  0.00    -0.000 A 
HETATM    8  C5  UNL     1      -2.862  -2.143   1.887  1.00  0.00     0.002 A 
HETATM    9  C6  UNL     1      -2.009  -1.296   1.211  1.00  0.00     0.019 A 
ENDBRANCH   2   3
ENDBRANCH   1   2
BRANCH   1  10
HETATM   10  C9  UNL     1       0.712   1.135  -1.398  1.00  0.00     0.107 C 
BRANCH  10  11
HETATM   11  S1  UNL     1       2.039   0.035  -1.945  1.00  0.00    -0.107 SA
BRANCH  11  12
HETATM   12  C10 UNL     1       3.140  -0.281  -0.576  1.00  0.00     0.026 A 
HETATM   13  C11 UNL     1       2.896  -1.350   0.251  1.00  0.00     0.006 A 
HETATM   14  C12 UNL     1       3.771  -1.560   1.299  1.00  0.00     0.001 A 
HETATM   15  C13 UNL     1       4.853  -0.694   1.480  1.00  0.00     0.000 A 
HETATM   16  C14 UNL     1       5.075   0.373   0.634  1.00  0.00     0.001 A 
HETATM   17  C15 UNL     1       4.203   0.579  -0.408  1.00  0.00     0.006 A 
ENDBRANCH  11  12
ENDBRANCH  10  11
ENDBRANCH   1  10
BRANCH   1  18
HETATM   18  C16 UNL     1      -0.852   1.325   0.562  1.00  0.00    -0.030 C 
HETATM   19  C17 UNL     1      -0.148   2.555   0.998  1.00  0.00     0.023 C 
HETATM   20  C18 UNL     1       0.271   3.467  -0.107  1.00  0.00     0.004 C 
HETATM   21  C19 UNL     1      -0.872   4.324  -0.580  1.00  0.00     0.000 C 
HETATM   22  C20 UNL     1      -1.924   3.356  -1.136  1.00  0.00     0.000 C 
HETATM   23  C21 UNL     1      -2.757   2.829   0.011  1.00  0.00     0.004 C 
HETATM   24  C22 UNL     1      -2.326   1.452   0.400  1.00  0.00     0.023 C 
ENDBRANCH   1  18
TORSDOF 6
