REMARK  4 active torsions:
REMARK  status: ('A' for Active; 'I' for Inactive)
REMARK    1  A    between atoms: C3_4  and  C4_5 
REMARK       I    between atoms: C4_5  and  N2_7 
REMARK    2  A    between atoms: C5_9  and  C6_10 
REMARK    3  A    between atoms: C13_17  and  C14_18 
REMARK    4  A    between atoms: C17_21  and  C18_22 
ROOT
HETATM    1  C4  UNL     1      -0.784  -1.933   0.588  1.00  0.00     0.280 C 
HETATM    2  O1  UNL     1       0.122  -2.664   0.993  1.00  0.00    -0.265 OA
HETATM    3  N2  UNL     1      -0.735  -0.534   0.762  1.00  0.00    -0.214 N 
HETATM    4  N3  UNL     1      -1.749   0.386   0.338  1.00  0.00    -0.171 NA
HETATM    5  C5  UNL     1      -1.479   1.572   0.727  1.00  0.00     0.081 C 
HETATM    6  C12 UNL     1      -0.218   1.586   1.492  1.00  0.00     0.077 C 
HETATM    7  C13 UNL     1       0.322   0.181   1.397  1.00  0.00     0.137 C 
ENDROOT
BRANCH   7   8
HETATM    8  C14 UNL     1       1.646   0.097   0.785  1.00  0.00     0.000 A 
HETATM    9  C15 UNL     1       2.425   1.221   0.538  1.00  0.00    -0.003 A 
HETATM   10  C16 UNL     1       3.677   1.082  -0.025  1.00  0.00     0.004 A 
HETATM   11  C17 UNL     1       4.209  -0.133  -0.366  1.00  0.00     0.071 A 
HETATM   12  C19 UNL     1       3.430  -1.252  -0.117  1.00  0.00     0.004 A 
HETATM   13  C20 UNL     1       2.192  -1.110   0.439  1.00  0.00    -0.003 A 
BRANCH  11  14
HETATM   14  C18 UNL     1       5.559  -0.301  -0.969  1.00  0.00     0.419 C 
HETATM   15  F1  UNL     1       5.518  -0.157  -2.342  1.00  0.00    -0.166 F 
HETATM   16  F2  UNL     1       6.448   0.613  -0.436  1.00  0.00    -0.166 F 
HETATM   17  F3  UNL     1       5.982  -1.587  -0.680  1.00  0.00    -0.166 F 
ENDBRANCH  11  14
ENDBRANCH   7   8
BRANCH   1  18
HETATM   18  C3  UNL     1      -1.924  -2.532  -0.081  1.00  0.00     0.097 A 
HETATM   19  C2  UNL     1      -2.113  -3.871  -0.332  1.00  0.00     0.102 A 
HETATM   20  N1  UNL     1      -3.271  -4.055  -0.969  1.00  0.00    -0.247 N 
HETATM   21  C1  UNL     1      -3.901  -5.286  -1.432  1.00  0.00     0.154 C 
HETATM   22  N4  UNL     1      -3.848  -2.872  -1.144  1.00  0.00    -0.168 NA
HETATM   23  C21 UNL     1      -3.051  -1.918  -0.614  1.00  0.00     0.127 A 
ENDBRANCH   1  18
BRANCH   5  24
HETATM   24  C6  UNL     1      -2.286   2.771   0.479  1.00  0.00     0.015 A 
HETATM   25  C7  UNL     1      -1.911   4.016   0.916  1.00  0.00     0.001 A 
HETATM   26  C8  UNL     1      -2.661   5.143   0.696  1.00  0.00     0.000 A 
HETATM   27  C9  UNL     1      -3.851   5.043   0.010  1.00  0.00     0.000 A 
HETATM   28  C10 UNL     1      -4.265   3.810  -0.445  1.00  0.00     0.000 A 
HETATM   29  C11 UNL     1      -3.482   2.685  -0.210  1.00  0.00     0.001 A 
ENDBRANCH   5  24
TORSDOF 4
