REMARK  6 active torsions:
REMARK  status: ('A' for Active; 'I' for Inactive)
REMARK    1  A    between atoms: C5_7  and  N3_8 
REMARK    2  A    between atoms: N5_19  and  C14_20 
REMARK    3  A    between atoms: C14_20  and  C15_21 
REMARK    4  A    between atoms: C15_21  and  C16_22 
REMARK    5  A    between atoms: C16_22  and  N6_23 
REMARK    6  A    between atoms: N6_23  and  C17_24 
ROOT
HETATM    1  N3  UNL     1      -2.798  -0.227   1.675  1.00  0.00    -0.058 NA
HETATM    2  C6  UNL     1      -2.840  -1.209   0.908  1.00  0.00     0.734 A 
HETATM    3  N4  UNL     1      -3.446  -2.372   1.350  1.00  0.00    -0.061 NA
HETATM    4  C7  UNL     1      -3.598  -3.452   0.607  1.00  0.00     0.104 A 
HETATM    5  C8  UNL     1      -4.212  -4.610   1.076  1.00  0.00     0.020 A 
HETATM    6  C9  UNL     1      -4.350  -5.713   0.264  1.00  0.00     0.002 A 
HETATM    7  C10 UNL     1      -3.889  -5.713  -1.030  1.00  0.00     0.000 A 
HETATM    8  C11 UNL     1      -3.281  -4.568  -1.496  1.00  0.00     0.006 A 
HETATM    9  C12 UNL     1      -3.135  -3.451  -0.691  1.00  0.00     0.075 A 
HETATM   10  C13 UNL     1      -2.532  -2.302  -1.133  1.00  0.00     0.276 A 
HETATM   11  O1  UNL     1      -2.101  -2.281  -2.322  1.00  0.00    -0.266 OA
HETATM   12  N5  UNL     1      -2.384  -1.191  -0.342  1.00  0.00    -0.127 N 
ENDROOT
BRANCH  12  13
HETATM   13  C14 UNL     1      -1.731  -0.051  -0.947  1.00  0.00     0.130 C 
BRANCH  13  14
HETATM   14  C15 UNL     1      -0.242  -0.150  -0.983  1.00  0.00     0.052 C 
BRANCH  14  15
HETATM   15  C16 UNL     1       0.343  -0.317   0.356  1.00  0.00     0.128 C 
BRANCH  15  16
HETATM   16  N6  UNL     1       1.763  -0.419   0.399  1.00  0.00    -0.271 NA
BRANCH  16  17
HETATM   17  C17 UNL     1       2.651   0.597  -0.069  1.00  0.00     0.076 A 
HETATM   18  C18 UNL     1       2.147   1.762  -0.603  1.00  0.00     0.020 A 
HETATM   19  C19 UNL     1       3.004   2.753  -1.061  1.00  0.00     0.021 A 
HETATM   20  C20 UNL     1       4.376   2.619  -1.002  1.00  0.00     0.088 A 
HETATM   21  C21 UNL     1       4.888   1.454  -0.469  1.00  0.00     0.063 A 
HETATM   22  N7  UNL     1       5.422   3.498  -1.409  1.00  0.00    -0.205 NA
HETATM   23  C22 UNL     1       4.021   0.462  -0.011  1.00  0.00     0.024 A 
HETATM   24  C23 UNL     1       6.336   1.597  -0.538  1.00  0.00     0.254 A 
HETATM   25  O2  UNL     1       7.154   0.730  -0.142  1.00  0.00    -0.281 OA
HETATM   26  C24 UNL     1       6.695   2.880  -1.128  1.00  0.00     0.318 A 
HETATM   27  O3  UNL     1       7.822   3.382  -1.361  1.00  0.00    -0.262 OA
ENDBRANCH  16  17
ENDBRANCH  15  16
ENDBRANCH  14  15
ENDBRANCH  13  14
ENDBRANCH  12  13
BRANCH   1  28
HETATM   28  C5  UNL     1      -2.372   1.050   1.764  1.00  0.00     0.131 A 
HETATM   29  C1  UNL     1      -3.034   2.071   1.064  1.00  0.00     0.169 A 
HETATM   30  N1  UNL     1      -4.163   1.705   0.269  1.00  0.00    -0.078 NA
HETATM   31  N2  UNL     1      -2.665   3.358   1.126  1.00  0.00    -0.228 NA
HETATM   32  C2  UNL     1      -1.627   3.771   1.868  1.00  0.00     0.100 A 
HETATM   33  C3  UNL     1      -0.930   2.828   2.583  1.00  0.00     0.022 A 
HETATM   34  C4  UNL     1      -1.294   1.506   2.530  1.00  0.00     0.024 A 
ENDBRANCH   1  28
TORSDOF 6
