REMARK  7 active torsions:
REMARK  status: ('A' for Active; 'I' for Inactive)
REMARK    1  A    between atoms: C7_8  and  C8_9 
REMARK    2  A    between atoms: C8_9  and  O1_10 
REMARK    3  A    between atoms: C8_9  and  C18_22 
REMARK    4  A    between atoms: O1_10  and  C9_11 
REMARK    5  A    between atoms: C10_13  and  C11_14 
REMARK    6  A    between atoms: C23_28  and  S2_29 
REMARK    7  A    between atoms: S2_29  and  N3_32 
ROOT
HETATM    1  C8  UNL     1      -0.557  -1.093   0.585  1.00  0.00     0.178 C 
ENDROOT
BRANCH   1   2
HETATM    2  C7  UNL     1      -0.585  -2.520   1.192  1.00  0.00     0.251 C 
HETATM    3  C2  UNL     1       0.007  -3.540   0.214  1.00  0.00     0.036 C 
HETATM    4  C1  UNL     1       1.320  -3.193  -0.338  1.00  0.00     0.002 C 
HETATM    5  C3  UNL     1      -0.018  -4.766   1.139  1.00  0.00     0.037 C 
HETATM    6  C6  UNL     1      -1.056  -3.800  -0.781  1.00  0.00     0.037 C 
HETATM    7  C4  UNL     1      -1.424  -4.534   1.748  1.00  0.00     0.250 C 
HETATM    8  N1  UNL     1      -1.852  -3.148   1.296  1.00  0.00     0.138 N 
HETATM    9  C5  UNL     1      -2.279  -3.302  -0.074  1.00  0.00     0.250 C 
ENDBRANCH   1   2
BRANCH   1  10
HETATM   10  O1  UNL     1       0.718  -0.765   0.689  1.00  0.00    -0.306 OA
BRANCH  10  11
HETATM   11  C9  UNL     1       1.803  -0.267   0.016  1.00  0.00     0.211 A 
HETATM   12  N2  UNL     1       2.917   0.304   0.451  1.00  0.00    -0.216 NA
HETATM   13  C10 UNL     1       3.822   0.653  -0.367  1.00  0.00     0.090 A 
HETATM   14  C17 UNL     1       3.627   0.466  -1.701  1.00  0.00     0.058 A 
HETATM   15  S1  UNL     1       2.058  -0.284  -1.714  1.00  0.00    -0.041 SA
BRANCH  13  16
HETATM   16  C11 UNL     1       5.031   1.431   0.096  1.00  0.00     0.018 A 
HETATM   17  C12 UNL     1       5.045   1.996   1.329  1.00  0.00     0.002 A 
HETATM   18  C13 UNL     1       6.193   2.702   1.793  1.00  0.00     0.000 A 
HETATM   19  C14 UNL     1       7.275   2.784   0.953  1.00  0.00     0.000 A 
HETATM   20  C15 UNL     1       7.244   2.219  -0.275  1.00  0.00     0.000 A 
HETATM   21  C16 UNL     1       6.108   1.529  -0.734  1.00  0.00     0.002 A 
ENDBRANCH  13  16
ENDBRANCH  10  11
ENDBRANCH   1  10
BRANCH   1  22
HETATM   22  C18 UNL     1      -1.349  -0.979  -0.658  1.00  0.00     0.019 A 
HETATM   23  C19 UNL     1      -1.125  -1.539  -1.830  1.00  0.00    -0.000 A 
HETATM   24  C20 UNL     1      -1.987  -1.543  -2.887  1.00  0.00     0.011 A 
HETATM   25  C21 UNL     1      -3.212  -0.914  -2.751  1.00  0.00     0.058 A 
HETATM   26 CL1  UNL     1      -4.450  -0.894  -4.002  1.00  0.00    -0.082 Cl
HETATM   27  C22 UNL     1      -3.521  -0.270  -1.534  1.00  0.00     0.024 A 
HETATM   28  C23 UNL     1      -2.621  -0.277  -0.456  1.00  0.00     0.103 A 
BRANCH  28  29
HETATM   29  S2  UNL     1      -2.953   0.715   0.923  1.00  0.00     0.267 S 
HETATM   30  O2  UNL     1      -4.208   0.344   1.479  1.00  0.00    -0.200 OA
HETATM   31  O3  UNL     1      -1.858   0.450   1.932  1.00  0.00    -0.200 OA
BRANCH  29  32
HETATM   32  N3  UNL     1      -2.849   2.356   0.524  1.00  0.00    -0.253 N 
HETATM   33  C24 UNL     1      -1.747   3.012   0.084  1.00  0.00     0.082 C 
HETATM   34  C25 UNL     1      -1.977   4.257  -0.555  1.00  0.00    -0.007 C 
HETATM   35  C26 UNL     1      -3.251   4.980  -0.383  1.00  0.00     0.030 C 
HETATM   36  C27 UNL     1      -4.397   4.232   0.199  1.00  0.00     0.030 C 
HETATM   37  C28 UNL     1      -3.892   3.197   1.197  1.00  0.00     0.119 C 
ENDBRANCH  29  32
ENDBRANCH  28  29
ENDBRANCH   1  22
TORSDOF 7
