REMARK  8 active torsions:
REMARK  status: ('A' for Active; 'I' for Inactive)
REMARK    1  A    between atoms: C4_4  and  C5_5 
REMARK    2  A    between atoms: C5_5  and  C6_7 
REMARK    3  A    between atoms: C6_7  and  C7_9 
REMARK    4  A    between atoms: C12_16  and  C13_17 
REMARK    5  A    between atoms: C13_17  and  C14_18 
REMARK    6  A    between atoms: C14_18  and  N1_19 
REMARK    7  A    between atoms: C17_23  and  C18_24 
REMARK    8  A    between atoms: C24_33  and  N2_34 
ROOT
HETATM    1  N1  UNL     1       1.194  -0.673  -1.970  1.00  0.00    -0.299 N 
HETATM    2  C15 UNL     1       2.187  -1.514  -2.589  1.00  0.00     0.238 C 
HETATM    3  O5  UNL     1       1.725  -2.033  -3.629  1.00  0.00    -0.272 OA
HETATM    4  C16 UNL     1       3.586  -1.919  -2.321  1.00  0.00     0.099 C 
HETATM    5  C17 UNL     1       4.021  -1.667  -0.927  1.00  0.00     0.104 C 
HETATM    6  C19 UNL     1       4.624  -0.335  -0.647  1.00  0.00     0.080 C 
HETATM    7  C20 UNL     1       3.624   0.506   0.074  1.00  0.00     0.175 C 
HETATM    8  O8  UNL     1       3.968   0.878   1.219  1.00  0.00    -0.291 OA
HETATM    9  C21 UNL     1       2.303   0.974  -0.332  1.00  0.00     0.051 A 
HETATM   10  C22 UNL     1       2.147   2.165   0.322  1.00  0.00     0.006 A 
HETATM   11  C23 UNL     1       0.982   2.876   0.122  1.00  0.00     0.024 A 
HETATM   12  C24 UNL     1      -0.018   2.411  -0.719  1.00  0.00     0.128 A 
HETATM   13  C25 UNL     1       0.142   1.210  -1.377  1.00  0.00     0.041 A 
HETATM   14  C26 UNL     1       1.304   0.500  -1.177  1.00  0.00     0.067 A 
ENDROOT
BRANCH   1  15
HETATM   15  C14 UNL     1      -0.162  -1.107  -2.222  1.00  0.00     0.114 C 
BRANCH  15  16
HETATM   16  C13 UNL     1      -0.691  -2.085  -1.231  1.00  0.00     0.053 C 
BRANCH  16  17
HETATM   17  C12 UNL     1      -0.779  -1.565   0.149  1.00  0.00     0.007 A 
HETATM   18  C7  UNL     1      -1.862  -0.800   0.581  1.00  0.00     0.028 A 
HETATM   19  C8  UNL     1      -1.898  -0.298   1.876  1.00  0.00     0.029 A 
HETATM   20  C9  UNL     1      -0.867  -0.556   2.735  1.00  0.00     0.133 A 
HETATM   21  O3  UNL     1      -0.959  -0.027   4.018  1.00  0.00    -0.190 OA
HETATM   22  C10 UNL     1       0.228  -1.321   2.327  1.00  0.00     0.054 A 
HETATM   23  C11 UNL     1       0.250  -1.811   1.042  1.00  0.00     0.129 A 
HETATM   24  O4  UNL     1       1.327  -2.582   0.592  1.00  0.00    -0.190 OA
BRANCH  18  25
HETATM   25  C6  UNL     1      -2.978  -0.571  -0.329  1.00  0.00     0.156 C 
HETATM   26  O2  UNL     1      -2.699  -0.239  -1.614  1.00  0.00    -0.188 OA
BRANCH  25  27
HETATM   27  C5  UNL     1      -4.181   0.069   0.194  1.00  0.00     0.156 C 
HETATM   28  O1  UNL     1      -4.556  -0.178   1.473  1.00  0.00    -0.188 OA
BRANCH  27  29
HETATM   29  C4  UNL     1      -4.607   1.318  -0.420  1.00  0.00     0.021 C 
HETATM   30  C2  UNL     1      -5.581   2.101  -0.027  1.00  0.00    -0.042 C 
HETATM   31  C1  UNL     1      -5.821   3.346  -0.843  1.00  0.00     0.026 C 
HETATM   32  C3  UNL     1      -6.448   1.848   1.148  1.00  0.00     0.026 C 
ENDBRANCH  27  29
ENDBRANCH  25  27
ENDBRANCH  18  25
ENDBRANCH  16  17
ENDBRANCH  15  16
ENDBRANCH   1  15
BRANCH   5  33
HETATM   33  C18 UNL     1       4.780  -2.787  -0.320  1.00  0.00     0.186 C 
HETATM   34  O6  UNL     1       4.343  -3.266   0.753  1.00  0.00    -0.647 OA
HETATM   35  O7  UNL     1       5.933  -3.339  -0.851  1.00  0.00    -0.647 OA
ENDBRANCH   5  33
BRANCH  12  36
HETATM   36  N2  UNL     1      -1.181   3.219  -0.887  1.00  0.00    -0.114 N 
HETATM   37  O9  UNL     1      -1.309   4.397  -0.198  1.00  0.00    -0.532 OA
HETATM   38  O10 UNL     1      -2.071   2.858  -1.663  1.00  0.00    -0.532 OA
ENDBRANCH  12  36
TORSDOF 8
