REMARK  6 active torsions:
REMARK  status: ('A' for Active; 'I' for Inactive)
REMARK    1  A    between atoms: C1_2  and  C2_3 
REMARK       I    between atoms: C1_2  and  N1_13 
REMARK    2  A    between atoms: C2_3  and  C3_4 
REMARK    3  A    between atoms: C3_4  and  C4_6 
REMARK    4  A    between atoms: N1_13  and  C10_14 
REMARK    5  A    between atoms: C10_14  and  C11_15 
REMARK    6  A    between atoms: C11_15  and  N2_16 
ROOT
HETATM    1  C3  UNL     1       0.870  -0.413   0.857  1.00  0.00     0.184 C 
HETATM    2  O2  UNL     1       0.537  -1.317   1.641  1.00  0.00    -0.291 OA
ENDROOT
BRANCH   1   3
HETATM    3  C2  UNL     1       0.009  -0.039  -0.279  1.00  0.00     0.159 C 
BRANCH   3   4
HETATM    4  C1  UNL     1      -1.200  -0.895  -0.262  1.00  0.00     0.259 C 
HETATM    5  O1  UNL     1      -1.339  -1.759   0.633  1.00  0.00    -0.270 OA
HETATM    6  N1  UNL     1      -2.231  -0.769  -1.246  1.00  0.00    -0.236 NA
BRANCH   6   7
HETATM    7  C10 UNL     1      -3.373  -1.651  -1.144  1.00  0.00     0.148 C 
BRANCH   7   8
HETATM    8  C11 UNL     1      -4.304  -1.305  -2.305  1.00  0.00     0.129 C 
BRANCH   8   9
HETATM    9  N2  UNL     1      -4.663   0.099  -2.116  1.00  0.00    -0.152 NA
HETATM   10 BR1  UNL     1      -5.823   0.696  -3.478  1.00  0.00     0.031 Br
ENDBRANCH   8   9
ENDBRANCH   7   8
ENDBRANCH   6   7
ENDBRANCH   3   4
ENDBRANCH   1   3
BRANCH   1  11
HETATM   11  C4  UNL     1       2.122   0.285   1.059  1.00  0.00     0.061 A 
HETATM   12  C5  UNL     1       2.949  -0.046   2.116  1.00  0.00     0.005 A 
HETATM   13  C6  UNL     1       4.137   0.626   2.298  1.00  0.00     0.000 A 
HETATM   14  C7  UNL     1       4.508   1.628   1.429  1.00  0.00     0.002 A 
HETATM   15  C8  UNL     1       3.675   1.950   0.378  1.00  0.00     0.028 A 
HETATM   16  C9  UNL     1       2.483   1.285   0.185  1.00  0.00     0.134 A 
HETATM   17  O3  UNL     1       1.643   1.626  -0.894  1.00  0.00    -0.190 OA
ENDBRANCH   1  11
TORSDOF 6
