REMARK  2 active torsions:
REMARK  status: ('A' for Active; 'I' for Inactive)
REMARK    1  A    between atoms: C1_2  and  C2_3 
REMARK       I    between atoms: C1_2  and  N2_12 
REMARK       I    between atoms: N4_20  and  C15_21 
REMARK    2  A    between atoms: C15_21  and  C16_23 
ROOT
HETATM    1  O1  UNL     1      -2.304   1.894  -0.874  1.00  0.00    -0.263 OA
HETATM    2  C1  UNL     1      -2.670   0.694  -0.806  1.00  0.00     0.298 C 
HETATM    3  N2  UNL     1      -1.747  -0.367  -0.730  1.00  0.00    -0.314 N 
HETATM    4  C9  UNL     1      -2.213  -1.725  -0.653  1.00  0.00     0.104 C 
HETATM    5  C10 UNL     1      -1.488  -2.418   0.468  1.00  0.00     0.024 C 
HETATM    6  C11 UNL     1      -0.742  -1.454   1.360  1.00  0.00     0.004 C 
HETATM    7  C12 UNL     1       0.273  -0.731   0.517  1.00  0.00     0.024 C 
HETATM    8  C13 UNL     1       1.321  -1.741   0.065  1.00  0.00     0.023 C 
HETATM    9  C14 UNL     1       2.146  -1.181  -1.076  1.00  0.00     0.114 C 
HETATM   10  N3  UNL     1       3.340  -0.529  -0.599  1.00  0.00    -0.119 NA
HETATM   11  N4  UNL     1       3.003   0.608   0.141  1.00  0.00    -0.243 N 
HETATM   12  C15 UNL     1       4.046   1.259   0.849  1.00  0.00     0.272 C 
HETATM   13  O3  UNL     1       3.861   2.285   1.544  1.00  0.00    -0.266 OA
HETATM   14  C22 UNL     1       1.699   1.227   0.287  1.00  0.00     0.124 C 
HETATM   15  C23 UNL     1       0.938   0.391   1.319  1.00  0.00     0.028 C 
HETATM   16  C24 UNL     1      -0.332  -0.116  -0.727  1.00  0.00     0.104 C 
ENDROOT
BRANCH   2  17
HETATM   17  C2  UNL     1      -4.123   0.422  -0.808  1.00  0.00     0.240 A 
HETATM   18  N1  UNL     1      -4.721  -0.784  -0.743  1.00  0.00    -0.216 NA
HETATM   19  C3  UNL     1      -6.055  -0.641  -0.769  1.00  0.00     0.106 A 
HETATM   20  C4  UNL     1      -7.124  -1.509  -0.730  1.00  0.00     0.021 A 
HETATM   21  C8  UNL     1      -6.269   0.719  -0.854  1.00  0.00     0.119 A 
HETATM   22  C5  UNL     1      -8.406  -0.984  -0.778  1.00  0.00     0.002 A 
HETATM   23  C6  UNL     1      -8.644   0.367  -0.863  1.00  0.00     0.002 A 
HETATM   24  C7  UNL     1      -7.566   1.224  -0.901  1.00  0.00     0.026 A 
HETATM   25  O2  UNL     1      -5.092   1.296  -0.874  1.00  0.00    -0.284 OA
ENDBRANCH   2  17
BRANCH  12  26
HETATM   26  C16 UNL     1       5.390   0.715   0.765  1.00  0.00     0.059 A 
HETATM   27  C17 UNL     1       5.653  -0.400   0.023  1.00  0.00     0.005 A 
HETATM   28  C18 UNL     1       6.919  -0.915  -0.056  1.00  0.00     0.002 A 
HETATM   29  C19 UNL     1       7.963  -0.313   0.616  1.00  0.00     0.027 A 
HETATM   30  C20 UNL     1       7.736   0.814   1.375  1.00  0.00     0.131 A 
HETATM   31  O4  UNL     1       8.752   1.457   2.070  1.00  0.00    -0.190 OA
HETATM   32  C21 UNL     1       6.454   1.316   1.442  1.00  0.00     0.032 A 
ENDBRANCH  12  26
TORSDOF 2
