REMARK  10 active torsions:
REMARK  status: ('A' for Active; 'I' for Inactive)
REMARK    1  A    between atoms: C3_4  and  C4_5 
REMARK    2  A    between atoms: C4_5  and  N1_6 
REMARK    3  A    between atoms: N1_6  and  C5_7 
REMARK    4  A    between atoms: C5_7  and  C6_8 
REMARK    5  A    between atoms: C12_15  and  N3_16 
REMARK    6  A    between atoms: N3_16  and  C13_17 
REMARK    7  A    between atoms: C23_27  and  C24_28 
REMARK    8  A    between atoms: C23_27  and  C31_35 
REMARK    9  A    between atoms: C24_28  and  C25_29 
REMARK   10  A    between atoms: C31_35  and  N4_36 
ROOT
HETATM    1  O1  UNL     1      -1.179  -3.234   0.423  1.00  0.00    -0.291 OA
HETATM    2  C1  UNL     1      -0.695  -2.052   0.553  1.00  0.00     0.182 C 
HETATM    3  C2  UNL     1       0.492  -1.953   1.370  1.00  0.00     0.055 C 
HETATM    4  C3  UNL     1       1.147  -0.790   1.291  1.00  0.00     0.099 C 
HETATM    5  N2  UNL     1       0.617   0.239   0.512  1.00  0.00    -0.233 NA
HETATM    6  C12 UNL     1      -0.465   0.243  -0.168  1.00  0.00     0.147 C 
HETATM    7  C23 UNL     1      -1.361  -0.944  -0.115  1.00  0.00     0.134 C 
ENDROOT
BRANCH   7   8
HETATM    8  C24 UNL     1      -1.851  -1.371  -1.452  1.00  0.00     0.043 C 
BRANCH   8   9
HETATM    9  C25 UNL     1      -0.817  -1.843  -2.388  1.00  0.00    -0.021 A 
HETATM   10  C26 UNL     1      -0.471  -3.174  -2.422  1.00  0.00    -0.004 A 
HETATM   11  C27 UNL     1       0.491  -3.684  -3.278  1.00  0.00    -0.000 A 
HETATM   12  C28 UNL     1       1.133  -2.818  -4.137  1.00  0.00    -0.000 A 
HETATM   13  C29 UNL     1       0.820  -1.497  -4.134  1.00  0.00    -0.000 A 
HETATM   14  C30 UNL     1      -0.155  -0.998  -3.262  1.00  0.00    -0.004 A 
ENDBRANCH   8   9
ENDBRANCH   7   8
BRANCH   7  15
HETATM   15  C31 UNL     1      -2.592  -0.551   0.702  1.00  0.00     0.144 C 
BRANCH  15  16
HETATM   16  N4  UNL     1      -3.513  -1.648   0.849  1.00  0.00    -0.231 N 
HETATM   17  N5  UNL     1      -4.449  -2.031   0.016  1.00  0.00    -0.064 NA
HETATM   18  N6  UNL     1      -5.053  -3.085   0.518  1.00  0.00    -0.129 NA
HETATM   19  C32 UNL     1      -4.502  -3.396   1.702  1.00  0.00     0.122 A 
HETATM   20  C33 UNL     1      -4.769  -4.400   2.638  1.00  0.00     0.022 A 
HETATM   21  C37 UNL     1      -3.512  -2.464   1.906  1.00  0.00     0.099 A 
HETATM   22  C34 UNL     1      -4.005  -4.424   3.775  1.00  0.00     0.002 A 
HETATM   23  C35 UNL     1      -3.006  -3.489   3.991  1.00  0.00     0.002 A 
HETATM   24  C36 UNL     1      -2.752  -2.508   3.064  1.00  0.00     0.020 A 
ENDBRANCH  15  16
ENDBRANCH   7  15
BRANCH   6  25
HETATM   25  N3  UNL     1      -0.787   1.421  -0.890  1.00  0.00    -0.231 NA
BRANCH  25  26
HETATM   26  C13 UNL     1      -0.392   2.715  -0.477  1.00  0.00     0.083 A 
HETATM   27  C14 UNL     1       0.314   2.948   0.681  1.00  0.00     0.019 A 
HETATM   28  C15 UNL     1       0.686   4.241   1.049  1.00  0.00     0.002 A 
HETATM   29  C16 UNL     1       0.339   5.305   0.234  1.00  0.00     0.000 A 
HETATM   30  C17 UNL     1       0.677   6.618   0.539  1.00  0.00     0.000 A 
HETATM   31  C21 UNL     1      -0.361   5.090  -0.919  1.00  0.00     0.002 A 
HETATM   32  C18 UNL     1       0.324   7.661  -0.283  1.00  0.00     0.000 A 
HETATM   33  C19 UNL     1      -0.383   7.448  -1.448  1.00  0.00     0.000 A 
HETATM   34  C20 UNL     1      -0.720   6.131  -1.750  1.00  0.00     0.000 A 
HETATM   35  C22 UNL     1      -0.719   3.797  -1.261  1.00  0.00     0.019 A 
ENDBRANCH  25  26
ENDBRANCH   6  25
BRANCH   4  36
HETATM   36  C4  UNL     1       2.381  -0.655   2.112  1.00  0.00     0.336 C 
BRANCH  36  37
HETATM   37  N1  UNL     1       3.480  -0.401   1.203  1.00  0.00     0.345 N 
BRANCH  37  38
HETATM   38  C5  UNL     1       3.357   0.908   0.584  1.00  0.00     0.291 C 
BRANCH  38  39
HETATM   39  C6  UNL     1       4.578   1.037  -0.336  1.00  0.00     0.036 C 
HETATM   40  C7  UNL     1       4.456  -0.112  -1.330  1.00  0.00     0.002 C 
HETATM   41  C8  UNL     1       5.682  -0.983  -1.332  1.00  0.00     0.000 C 
HETATM   42  C9  UNL     1       5.916  -1.581   0.028  1.00  0.00     0.000 C 
HETATM   43  C10 UNL     1       5.787  -0.543   1.117  1.00  0.00     0.000 C 
HETATM   44  C11 UNL     1       5.830   0.830   0.526  1.00  0.00     0.002 C 
ENDBRANCH  38  39
ENDBRANCH  37  38
ENDBRANCH  36  37
ENDBRANCH   4  36
TORSDOF 10
