REMARK  8 active torsions:
REMARK  status: ('A' for Active; 'I' for Inactive)
REMARK    1  A    between atoms: C2_2  and  C3_3 
REMARK    2  A    between atoms: N1_11  and  C11_12 
REMARK    3  A    between atoms: C11_12  and  C12_13 
REMARK    4  A    between atoms: C12_13  and  C13_14 
REMARK    5  A    between atoms: C13_14  and  C14_15 
REMARK    6  A    between atoms: C13_14  and  C22_24 
REMARK    7  A    between atoms: N3_32  and  C30_33 
REMARK    8  A    between atoms: C30_33  and  C31_34 
ROOT
HETATM    1  C1  UNL     1       2.501   1.103   2.530  1.00  0.00     0.022 C 
HETATM    2  C2  UNL     1       2.779   1.133   0.973  1.00  0.00     0.066 C 
HETATM    3  C9  UNL     1       1.457   1.671   0.337  1.00  0.00     0.056 C 
HETATM    4  C10 UNL     1       0.324   1.007   1.172  1.00  0.00     0.253 C 
HETATM    5  N1  UNL     1      -0.332   0.130   0.156  1.00  0.00     0.143 N 
HETATM    6  C28 UNL     1       0.797  -0.439  -0.640  1.00  0.00     0.294 C 
HETATM    7  C29 UNL     1       1.793  -0.940   0.364  1.00  0.00     0.080 C 
HETATM    8  N3  UNL     1       2.949  -0.180   0.595  1.00  0.00    -0.349 N 
ENDROOT
BRANCH   5   9
HETATM    9  C11 UNL     1      -1.071   1.011  -0.662  1.00  0.00     0.251 C 
BRANCH   9  10
HETATM   10  C12 UNL     1      -2.249   1.607  -0.087  1.00  0.00     0.040 C 
BRANCH  10  11
HETATM   11  C13 UNL     1      -3.405   0.712   0.228  1.00  0.00     0.026 C 
BRANCH  11  12
HETATM   12  C14 UNL     1      -3.758   0.049  -1.051  1.00  0.00    -0.002 A 
HETATM   13  C15 UNL     1      -3.171  -0.989  -1.735  1.00  0.00     0.095 A 
HETATM   14  N2  UNL     1      -3.952  -1.294  -2.790  1.00  0.00    -0.244 NA
HETATM   15  C16 UNL     1      -5.046  -0.498  -2.849  1.00  0.00     0.081 A 
HETATM   16  C17 UNL     1      -6.105  -0.360  -3.732  1.00  0.00     0.019 A 
HETATM   17  C21 UNL     1      -4.933   0.349  -1.766  1.00  0.00     0.015 A 
HETATM   18  C18 UNL     1      -7.044   0.616  -3.549  1.00  0.00     0.002 A 
HETATM   19  C19 UNL     1      -6.923   1.468  -2.449  1.00  0.00     0.000 A 
HETATM   20  C20 UNL     1      -5.885   1.345  -1.560  1.00  0.00     0.001 A 
ENDBRANCH  11  12
BRANCH  11  21
HETATM   21  C22 UNL     1      -3.145  -0.228   1.296  1.00  0.00     0.004 C 
HETATM   22  C23 UNL     1      -2.815   0.286   2.627  1.00  0.00     0.000 C 
HETATM   23  C24 UNL     1      -3.733  -0.266   3.721  1.00  0.00     0.000 C 
HETATM   24  C25 UNL     1      -5.155  -0.361   3.263  1.00  0.00     0.000 C 
HETATM   25  C26 UNL     1      -5.328  -1.084   1.965  1.00  0.00     0.000 C 
HETATM   26  C27 UNL     1      -4.009  -1.415   1.325  1.00  0.00     0.000 C 
ENDBRANCH  11  21
ENDBRANCH  10  11
ENDBRANCH   9  10
ENDBRANCH   5   9
BRANCH   2  27
HETATM   27  C3  UNL     1       3.844   2.105   0.797  1.00  0.00     0.019 C 
HETATM   28  C4  UNL     1       3.531   3.469   1.225  1.00  0.00     0.002 C 
HETATM   29  C5  UNL     1       4.391   4.480   0.494  1.00  0.00     0.000 C 
HETATM   30  C6  UNL     1       5.821   4.116   0.671  1.00  0.00     0.000 C 
HETATM   31  C7  UNL     1       6.173   2.676   0.427  1.00  0.00     0.000 C 
HETATM   32  C8  UNL     1       4.988   1.860  -0.062  1.00  0.00     0.002 C 
ENDBRANCH   2  27
BRANCH   8  33
HETATM   33  C30 UNL     1       4.006  -0.596  -0.264  1.00  0.00     0.129 C 
BRANCH  33  34
HETATM   34  C31 UNL     1       4.257  -2.073  -0.058  1.00  0.00     0.011 A 
HETATM   35  C32 UNL     1       3.429  -2.745   0.802  1.00  0.00    -0.002 A 
HETATM   36  C33 UNL     1       3.543  -4.093   1.025  1.00  0.00    -0.000 A 
HETATM   37  C34 UNL     1       4.530  -4.764   0.345  1.00  0.00     0.001 A 
HETATM   38  C35 UNL     1       5.381  -4.129  -0.531  1.00  0.00     0.011 A 
HETATM   39  C36 UNL     1       5.229  -2.759  -0.718  1.00  0.00     0.056 A 
HETATM   40 CL1  UNL     1       6.335  -1.985  -1.832  1.00  0.00    -0.083 Cl
ENDBRANCH  33  34
ENDBRANCH   8  33
TORSDOF 8
