REMARK  10 active torsions:
REMARK  status: ('A' for Active; 'I' for Inactive)
REMARK    1  A    between atoms: C2_2  and  C3_3 
REMARK    2  A    between atoms: C2_2  and  C17_18 
REMARK    3  A    between atoms: C3_3  and  O1_4 
REMARK    4  A    between atoms: O1_4  and  C4_5 
REMARK    5  A    between atoms: C4_5  and  C5_6 
REMARK    6  A    between atoms: C4_5  and  C11_12 
REMARK    7  A    between atoms: C17_18  and  N1_19 
REMARK       I    between atoms: N2_22  and  C20_23 
REMARK    8  A    between atoms: C20_23  and  C21_25 
REMARK    9  A    between atoms: N3_41  and  C33_42 
REMARK   10  A    between atoms: C33_42  and  C34_43 
ROOT
HETATM    1  N1  UNL     1       2.407   1.309  -0.011  1.00  0.00     0.139 N 
HETATM    2  C18 UNL     1       1.579   1.813   1.067  1.00  0.00     0.274 C 
HETATM    3  C19 UNL     1       0.185   2.008   0.513  1.00  0.00     0.140 C 
HETATM    4  N2  UNL     1      -0.569   0.776   0.545  1.00  0.00    -0.315 N 
HETATM    5  C20 UNL     1      -1.725   0.808   1.360  1.00  0.00     0.252 C 
HETATM    6  O2  UNL     1      -2.000   1.892   1.984  1.00  0.00    -0.268 OA
HETATM    7  C40 UNL     1      -0.338  -0.489  -0.119  1.00  0.00     0.106 C 
HETATM    8  C41 UNL     1       1.168  -0.725  -0.298  1.00  0.00     0.056 C 
HETATM    9  C42 UNL     1       1.359  -1.892  -1.241  1.00  0.00     0.004 C 
HETATM   10  C43 UNL     1       1.710   0.518  -0.972  1.00  0.00     0.252 C 
ENDROOT
BRANCH   5  11
HETATM   11  C21 UNL     1      -2.659  -0.296   1.565  1.00  0.00     0.045 C 
HETATM   12  C22 UNL     1      -2.136  -1.528   2.170  1.00  0.00     0.047 C 
HETATM   13  C23 UNL     1      -1.886  -2.572   1.109  1.00  0.00     0.129 C 
HETATM   14  S1  UNL     1      -3.251  -2.222  -0.013  1.00  0.00     0.190 S 
HETATM   15  O3  UNL     1      -4.364  -3.179   0.205  1.00  0.00    -0.224 OA
HETATM   16  O4  UNL     1      -2.776  -2.298  -1.424  1.00  0.00    -0.224 OA
HETATM   17  C24 UNL     1      -3.619  -0.568   0.470  1.00  0.00     0.181 C 
HETATM   18  C25 UNL     1      -3.448   0.368  -0.712  1.00  0.00     0.041 C 
HETATM   19  N3  UNL     1      -4.982  -0.393   0.921  1.00  0.00    -0.304 N 
HETATM   20  C26 UNL     1      -3.620   1.793  -0.300  1.00  0.00     0.012 C 
HETATM   21  C27 UNL     1      -3.536   2.650  -1.568  1.00  0.00     0.001 C 
HETATM   22  C31 UNL     1      -4.861   2.096   0.467  1.00  0.00     0.079 C 
HETATM   23  C28 UNL     1      -4.077   4.027  -1.252  1.00  0.00     0.000 C 
HETATM   24  C29 UNL     1      -5.568   3.940  -0.975  1.00  0.00     0.001 C 
HETATM   25  C30 UNL     1      -5.933   2.543  -0.522  1.00  0.00     0.009 C 
HETATM   26  C32 UNL     1      -5.411   0.930   1.206  1.00  0.00     0.234 C 
HETATM   27  O5  UNL     1      -6.274   1.133   2.098  1.00  0.00    -0.272 OA
BRANCH  19  28
HETATM   28  C33 UNL     1      -5.918  -1.483   1.092  1.00  0.00     0.132 C 
BRANCH  28  29
HETATM   29  C34 UNL     1      -6.699  -1.757  -0.116  1.00  0.00     0.000 A 
HETATM   30  C35 UNL     1      -7.632  -2.761  -0.132  1.00  0.00    -0.002 A 
HETATM   31  C36 UNL     1      -8.377  -3.011  -1.300  1.00  0.00    -0.000 A 
HETATM   32  C37 UNL     1      -8.173  -2.253  -2.430  1.00  0.00    -0.000 A 
HETATM   33  C38 UNL     1      -7.240  -1.250  -2.415  1.00  0.00    -0.000 A 
HETATM   34  C39 UNL     1      -6.519  -1.020  -1.257  1.00  0.00    -0.002 A 
ENDBRANCH  28  29
ENDBRANCH  19  28
ENDBRANCH   5  11
BRANCH   1  35
HETATM   35  C17 UNL     1       3.659   0.788   0.436  1.00  0.00     0.253 C 
BRANCH  35  36
HETATM   36  C2  UNL     1       3.426  -0.453   1.224  1.00  0.00     0.063 C 
HETATM   37  C1  UNL     1       2.584  -0.312   2.440  1.00  0.00     0.005 C 
BRANCH  36  38
HETATM   38  C3  UNL     1       4.663  -1.251   1.537  1.00  0.00     0.145 C 
BRANCH  38  39
HETATM   39  O1  UNL     1       5.423  -1.360   0.398  1.00  0.00    -0.348 OA
BRANCH  39  40
HETATM   40  C4  UNL     1       5.886  -0.159  -0.110  1.00  0.00     0.160 C 
BRANCH  40  41
HETATM   41  C5  UNL     1       6.789   0.562   0.821  1.00  0.00     0.009 A 
HETATM   42  C6  UNL     1       6.527   0.660   2.161  1.00  0.00    -0.002 A 
HETATM   43  C7  UNL     1       7.414   1.347   2.965  1.00  0.00    -0.000 A 
HETATM   44  C8  UNL     1       8.560   1.944   2.478  1.00  0.00    -0.000 A 
HETATM   45  C9  UNL     1       8.817   1.843   1.133  1.00  0.00    -0.000 A 
HETATM   46  C10 UNL     1       7.940   1.159   0.320  1.00  0.00    -0.002 A 
ENDBRANCH  40  41
BRANCH  40  47
HETATM   47  C11 UNL     1       6.580  -0.379  -1.392  1.00  0.00     0.009 A 
HETATM   48  C12 UNL     1       7.478  -1.408  -1.503  1.00  0.00    -0.002 A 
HETATM   49  C13 UNL     1       8.152  -1.650  -2.692  1.00  0.00    -0.000 A 
HETATM   50  C14 UNL     1       7.913  -0.840  -3.777  1.00  0.00    -0.000 A 
HETATM   51  C15 UNL     1       7.022   0.186  -3.675  1.00  0.00    -0.000 A 
HETATM   52  C16 UNL     1       6.351   0.418  -2.477  1.00  0.00    -0.002 A 
ENDBRANCH  40  47
ENDBRANCH  39  40
ENDBRANCH  38  39
ENDBRANCH  36  38
ENDBRANCH  35  36
ENDBRANCH   1  35
TORSDOF 10
