REMARK  10 active torsions:
REMARK  status: ('A' for Active; 'I' for Inactive)
REMARK    1  A    between atoms: C2_2  and  C3_3 
REMARK    2  A    between atoms: C3_3  and  C4_4 
REMARK    3  A    between atoms: C4_4  and  O1_5 
REMARK    4  A    between atoms: O1_5  and  C5_6 
REMARK    5  A    between atoms: C9_10  and  C10_11 
REMARK    6  A    between atoms: C10_11  and  C11_12 
REMARK    7  A    between atoms: C10_11  and  C15_16 
REMARK    8  A    between atoms: C11_12  and  C12_13 
REMARK    9  A    between atoms: C15_16  and  N1_17 
REMARK   10  A    between atoms: N2_20  and  C18_21 
ROOT
HETATM    1  C10 UNL     1       0.622  -1.920  -1.217  1.00  0.00     0.062 C 
ENDROOT
BRANCH   1   2
HETATM    2  C9  UNL     1       1.432  -1.486  -0.044  1.00  0.00    -0.015 A 
HETATM    3  C8  UNL     1       0.845  -1.646   1.194  1.00  0.00    -0.004 A 
HETATM    4  C7  UNL     1       1.524  -1.274   2.356  1.00  0.00     0.002 A 
HETATM    5  C6  UNL     1       2.792  -0.745   2.238  1.00  0.00     0.024 A 
HETATM    6  C5  UNL     1       3.404  -0.575   0.995  1.00  0.00     0.094 A 
HETATM    7  C26 UNL     1       2.682  -0.961  -0.103  1.00  0.00     0.020 A 
BRANCH   6   8
HETATM    8  O1  UNL     1       4.661  -0.043   0.995  1.00  0.00    -0.331 OA
BRANCH   8   9
HETATM    9  C4  UNL     1       5.481   0.231  -0.097  1.00  0.00     0.149 C 
BRANCH   9  10
HETATM   10  C3  UNL     1       4.872   1.219  -1.078  1.00  0.00     0.033 C 
BRANCH  10  11
HETATM   11  C2  UNL     1       4.600   2.533  -0.392  1.00  0.00     0.003 C 
HETATM   12  C1  UNL     1       3.994   3.546  -1.322  1.00  0.00     0.000 C 
ENDBRANCH  10  11
ENDBRANCH   9  10
ENDBRANCH   8   9
ENDBRANCH   6   8
ENDBRANCH   1   2
BRANCH   1  13
HETATM   13  C11 UNL     1       0.998  -1.171  -2.464  1.00  0.00     0.010 C 
BRANCH  13  14
HETATM   14  C12 UNL     1       2.442  -1.400  -2.779  1.00  0.00     0.001 C 
HETATM   15  C13 UNL     1       2.903  -0.676  -4.028  1.00  0.00     0.000 C 
HETATM   16  C14 UNL     1       2.735  -2.883  -2.833  1.00  0.00     0.000 C 
ENDBRANCH  13  14
ENDBRANCH   1  13
BRANCH   1  17
HETATM   17  C15 UNL     1      -0.834  -1.890  -0.907  1.00  0.00     0.053 C 
BRANCH  17  18
HETATM   18  N1  UNL     1      -1.396  -0.679  -0.552  1.00  0.00    -0.326 N 
HETATM   19  C16 UNL     1      -1.510   0.351  -1.501  1.00  0.00     0.088 C 
HETATM   20  C17 UNL     1      -2.600   1.341  -1.209  1.00  0.00     0.066 C 
HETATM   21  N2  UNL     1      -2.820   1.665   0.144  1.00  0.00    -0.250 NA
HETATM   22  C24 UNL     1      -1.881   1.015   1.012  1.00  0.00     0.101 C 
HETATM   23  C25 UNL     1      -1.979  -0.492   0.718  1.00  0.00     0.124 C 
BRANCH  21  24
HETATM   24  C18 UNL     1      -4.153   1.349   0.538  1.00  0.00     0.062 C 
HETATM   25  C19 UNL     1      -5.201   2.138  -0.213  1.00  0.00     0.016 C 
HETATM   26  C20 UNL     1      -6.473   2.117   0.604  1.00  0.00     0.001 C 
HETATM   27  C21 UNL     1      -6.703   0.715   1.174  1.00  0.00     0.000 C 
HETATM   28  C22 UNL     1      -5.970  -0.257   0.279  1.00  0.00     0.001 C 
HETATM   29  C23 UNL     1      -4.467  -0.122   0.496  1.00  0.00     0.016 C 
ENDBRANCH  21  24
ENDBRANCH  17  18
ENDBRANCH   1  17
TORSDOF 10
