REMARK  12 active torsions:
REMARK  status: ('A' for Active; 'I' for Inactive)
REMARK    1  A    between atoms: C2_2  and  C3_3 
REMARK    2  A    between atoms: C3_3  and  N1_4 
REMARK       I    between atoms: N1_4  and  C4_5 
REMARK    3  A    between atoms: C4_5  and  C5_7 
REMARK    4  A    between atoms: C8_10  and  C9_11 
REMARK       I    between atoms: C9_11  and  N2_13 
REMARK    5  A    between atoms: N2_13  and  N3_14 
REMARK       I    between atoms: N3_14  and  C10_15 
REMARK    6  A    between atoms: C10_15  and  C11_17 
REMARK    7  A    between atoms: N4_25  and  C19_26 
REMARK    8  A    between atoms: C19_26  and  C20_27 
REMARK    9  A    between atoms: C21_28  and  N5_29 
REMARK   10  A    between atoms: N6_32  and  C24_33 
REMARK   11  A    between atoms: C35_44  and  N7_45 
REMARK       I    between atoms: N7_45  and  C36_46 
REMARK   12  A    between atoms: C36_46  and  C37_48 
ROOT
HETATM    1  C37 UNL     1      -8.775   1.823  -1.270  1.00  0.00     0.068 A 
HETATM    2  C38 UNL     1      -8.671   3.132  -1.764  1.00  0.00     0.005 A 
HETATM    3  C39 UNL     1      -9.788   3.834  -2.143  1.00  0.00     0.000 A 
HETATM    4  C40 UNL     1     -11.055   3.323  -2.070  1.00  0.00     0.001 A 
HETATM    5  C41 UNL     1     -11.163   2.028  -1.584  1.00  0.00     0.010 A 
HETATM    6  C42 UNL     1     -10.037   1.307  -1.198  1.00  0.00     0.073 A 
HETATM    7  C43 UNL     1     -10.270  -0.031  -0.754  1.00  0.00     0.101 C 
HETATM    8  N8  UNL     1     -10.469  -1.120  -0.425  1.00  0.00    -0.191 NA
ENDROOT
BRANCH   1   9
HETATM    9  C36 UNL     1      -7.582   1.135  -0.824  1.00  0.00     0.280 C 
HETATM   10  N7  UNL     1      -7.492   0.093   0.109  1.00  0.00    -0.208 NA
HETATM   11  O4  UNL     1      -6.463   1.518  -1.329  1.00  0.00    -0.265 OA
BRANCH  10  12
HETATM   12  C35 UNL     1      -6.266  -0.520   0.483  1.00  0.00     0.089 A 
HETATM   13  C5  UNL     1      -6.259  -1.413   1.555  1.00  0.00     0.075 A 
HETATM   14  C6  UNL     1      -5.093  -2.042   1.928  1.00  0.00     0.006 A 
HETATM   15  C7  UNL     1      -3.931  -1.796   1.247  1.00  0.00     0.005 A 
HETATM   16  C8  UNL     1      -3.896  -0.905   0.164  1.00  0.00     0.061 A 
HETATM   17  C34 UNL     1      -5.058  -0.303  -0.177  1.00  0.00     0.024 A 
BRANCH  13  18
HETATM   18  C4  UNL     1      -7.499  -1.642   2.280  1.00  0.00     0.276 C 
HETATM   19  N1  UNL     1      -7.531  -2.549   3.366  1.00  0.00    -0.234 NA
HETATM   20  O1  UNL     1      -8.537  -1.050   1.956  1.00  0.00    -0.266 OA
BRANCH  19  21
HETATM   21  C3  UNL     1      -8.760  -2.777   4.083  1.00  0.00     0.129 C 
BRANCH  21  22
HETATM   22  C2  UNL     1      -9.802  -3.303   3.123  1.00  0.00     0.026 C 
HETATM   23  C1  UNL     1      -9.332  -4.601   2.516  1.00  0.00     0.002 C 
ENDBRANCH  21  22
ENDBRANCH  19  21
ENDBRANCH  13  18
BRANCH  16  24
HETATM   24  C9  UNL     1      -2.634  -0.663  -0.533  1.00  0.00     0.297 C 
HETATM   25  O2  UNL     1      -2.627  -0.091  -1.665  1.00  0.00    -0.264 OA
HETATM   26  N2  UNL     1      -1.414  -1.049   0.018  1.00  0.00    -0.102 NA
BRANCH  26  27
HETATM   27  N3  UNL     1      -0.131  -0.858  -0.560  1.00  0.00    -0.103 NA
HETATM   28  C10 UNL     1       0.780   0.038   0.110  1.00  0.00     0.293 C 
HETATM   29  O3  UNL     1       0.375   0.585   1.155  1.00  0.00    -0.264 OA
BRANCH  28  30
HETATM   30  C11 UNL     1       2.129   0.341  -0.356  1.00  0.00     0.039 C 
HETATM   31  C12 UNL     1       2.552  -0.245  -1.460  1.00  0.00     0.002 C 
HETATM   32  C13 UNL     1       3.836  -0.113  -2.131  1.00  0.00     0.015 A 
HETATM   33  C14 UNL     1       4.073  -1.048  -3.112  1.00  0.00     0.001 A 
HETATM   34  C18 UNL     1       4.841   0.849  -1.935  1.00  0.00     0.056 A 
HETATM   35  C15 UNL     1       5.218  -1.065  -3.876  1.00  0.00     0.000 A 
HETATM   36  C16 UNL     1       6.180  -0.109  -3.659  1.00  0.00     0.002 A 
HETATM   37  C17 UNL     1       5.971   0.852  -2.672  1.00  0.00     0.017 A 
HETATM   38  N4  UNL     1       4.740   1.877  -0.970  1.00  0.00    -0.344 N 
HETATM   39  C32 UNL     1       3.499   2.423  -0.371  1.00  0.00     0.107 C 
HETATM   40  C33 UNL     1       2.897   1.307   0.495  1.00  0.00     0.055 C 
BRANCH  38  41
HETATM   41  C19 UNL     1       5.965   2.499  -0.559  1.00  0.00     0.130 C 
BRANCH  41  42
HETATM   42  C20 UNL     1       6.178   2.327   0.880  1.00  0.00     0.017 C 
HETATM   43  C21 UNL     1       6.317   1.032   1.479  1.00  0.00     0.073 C 
BRANCH  43  44
HETATM   44  N5  UNL     1       7.413   0.254   1.141  1.00  0.00    -0.326 N 
HETATM   45  C22 UNL     1       7.550  -0.294  -0.132  1.00  0.00     0.074 C 
HETATM   46  C23 UNL     1       8.997  -0.535  -0.566  1.00  0.00     0.147 C 
HETATM   47  N6  UNL     1       9.742  -0.677   0.652  1.00  0.00    -0.341 N 
HETATM   48  C30 UNL     1       9.153  -1.352   1.765  1.00  0.00     0.126 C 
HETATM   49  C31 UNL     1       8.002  -0.494   2.239  1.00  0.00     0.130 C 
BRANCH  47  50
HETATM   50  C24 UNL     1      11.045  -0.163   0.733  1.00  0.00     0.056 A 
HETATM   51  C25 UNL     1      11.695  -0.196   1.948  1.00  0.00     0.017 A 
HETATM   52  C26 UNL     1      12.970   0.268   2.131  1.00  0.00     0.002 A 
HETATM   53  C27 UNL     1      13.658   0.799   1.065  1.00  0.00     0.000 A 
HETATM   54  C28 UNL     1      13.018   0.842  -0.178  1.00  0.00     0.002 A 
HETATM   55  C29 UNL     1      11.740   0.373  -0.347  1.00  0.00     0.017 A 
ENDBRANCH  47  50
ENDBRANCH  43  44
ENDBRANCH  41  42
ENDBRANCH  38  41
ENDBRANCH  28  30
ENDBRANCH  26  27
ENDBRANCH  16  24
ENDBRANCH  10  12
ENDBRANCH   1   9
TORSDOF 12
