REMARK  8 active torsions:
REMARK  status: ('A' for Active; 'I' for Inactive)
REMARK    1  A    between atoms: C4_4  and  N1_5 
REMARK    2  A    between atoms: N1_5  and  C5_6 
REMARK    3  A    between atoms: N1_5  and  C12_13 
REMARK    4  A    between atoms: C5_6  and  C6_7 
REMARK    5  A    between atoms: C12_13  and  C13_14 
REMARK       I    between atoms: C13_14  and  N2_16 
REMARK    6  A    between atoms: N3_19  and  S1_20 
REMARK    7  A    between atoms: S1_20  and  C16_23 
REMARK    8  A    between atoms: C30_37  and  C31_38 
ROOT
HETATM    1  C12 UNL     1       0.063  -0.121  -3.015  1.00  0.00     0.132 C 
HETATM    2  C24 UNL     1       0.733   0.680  -4.151  1.00  0.00     0.029 C 
HETATM    3  C25 UNL     1       1.139  -0.379  -5.145  1.00  0.00     0.002 C 
HETATM    4  C26 UNL     1       0.427  -1.648  -4.772  1.00  0.00     0.002 C 
HETATM    5  C27 UNL     1      -0.640  -1.238  -3.773  1.00  0.00     0.029 C 
ENDROOT
BRANCH   1   6
HETATM    6  N1  UNL     1      -0.820   0.730  -2.323  1.00  0.00    -0.362 N 
BRANCH   6   7
HETATM    7  C4  UNL     1      -1.636   0.180  -1.304  1.00  0.00     0.077 C 
HETATM    8  C3  UNL     1      -2.081   1.195  -0.338  1.00  0.00     0.022 C 
HETATM    9  C2  UNL     1      -2.731   0.621   0.903  1.00  0.00     0.006 C 
HETATM   10  C1  UNL     1      -4.049  -0.049   0.569  1.00  0.00     0.000 C 
HETATM   11  C30 UNL     1      -1.779  -0.432   1.455  1.00  0.00     0.022 C 
HETATM   12  C29 UNL     1      -1.771  -1.573   0.480  1.00  0.00     0.006 C 
HETATM   13  C28 UNL     1      -1.127  -1.106  -0.807  1.00  0.00     0.022 C 
BRANCH  11  14
HETATM   14  C31 UNL     1      -2.113  -0.815   2.818  1.00  0.00    -0.022 A 
HETATM   15  C32 UNL     1      -1.693  -0.048   3.879  1.00  0.00    -0.004 A 
HETATM   16  C33 UNL     1      -2.009  -0.408   5.195  1.00  0.00    -0.000 A 
HETATM   17  C34 UNL     1      -2.748  -1.540   5.440  1.00  0.00    -0.000 A 
HETATM   18  C35 UNL     1      -3.166  -2.304   4.381  1.00  0.00    -0.000 A 
HETATM   19  C36 UNL     1      -2.849  -1.938   3.097  1.00  0.00    -0.004 A 
ENDBRANCH  11  14
ENDBRANCH   6   7
BRANCH   6  20
HETATM   20  C5  UNL     1      -1.512   1.693  -3.108  1.00  0.00     0.124 C 
BRANCH  20  21
HETATM   21  C6  UNL     1      -2.716   1.133  -3.750  1.00  0.00    -0.000 A 
HETATM   22  C7  UNL     1      -3.253  -0.100  -3.510  1.00  0.00    -0.002 A 
HETATM   23  C8  UNL     1      -4.393  -0.520  -4.179  1.00  0.00    -0.000 A 
HETATM   24  C9  UNL     1      -5.010   0.287  -5.097  1.00  0.00    -0.000 A 
HETATM   25  C10 UNL     1      -4.469   1.538  -5.345  1.00  0.00    -0.000 A 
HETATM   26  C11 UNL     1      -3.341   1.959  -4.686  1.00  0.00    -0.002 A 
ENDBRANCH  20  21
ENDBRANCH   6  20
ENDBRANCH   1   6
BRANCH   1  27
HETATM   27  C13 UNL     1       1.128  -0.650  -2.147  1.00  0.00     0.251 C 
HETATM   28  O1  UNL     1       1.619  -1.774  -2.523  1.00  0.00    -0.270 OA
HETATM   29  N2  UNL     1       1.641  -0.060  -0.990  1.00  0.00    -0.316 N 
HETATM   30  C14 UNL     1       1.250   1.215  -0.426  1.00  0.00     0.123 C 
HETATM   31  C23 UNL     1       2.691  -0.761  -0.225  1.00  0.00     0.123 C 
HETATM   32  C15 UNL     1       2.017   1.439   0.836  1.00  0.00     0.113 C 
HETATM   33  N3  UNL     1       3.454   1.406   0.629  1.00  0.00    -0.173 NA
HETATM   34  C22 UNL     1       3.867   0.168  -0.009  1.00  0.00     0.113 C 
BRANCH  33  35
HETATM   35  S1  UNL     1       4.305   1.671   2.106  1.00  0.00     0.247 S 
HETATM   36  O2  UNL     1       5.773   1.642   1.780  1.00  0.00    -0.206 OA
HETATM   37  O3  UNL     1       3.936   3.024   2.640  1.00  0.00    -0.206 OA
BRANCH  35  38
HETATM   38  C16 UNL     1       3.962   0.443   3.279  1.00  0.00     0.098 A 
HETATM   39  C17 UNL     1       2.888   0.634   4.140  1.00  0.00     0.012 A 
HETATM   40  C18 UNL     1       2.565  -0.309   5.098  1.00  0.00     0.001 A 
HETATM   41  C19 UNL     1       3.337  -1.439   5.172  1.00  0.00     0.000 A 
HETATM   42  C20 UNL     1       4.395  -1.658   4.345  1.00  0.00     0.001 A 
HETATM   43  C21 UNL     1       4.719  -0.707   3.380  1.00  0.00     0.012 A 
ENDBRANCH  35  38
ENDBRANCH  33  35
ENDBRANCH   1  27
TORSDOF 8
