REMARK  11 active torsions:
REMARK  status: ('A' for Active; 'I' for Inactive)
REMARK    1  A    between atoms: C2_2  and  C3_3 
REMARK    2  A    between atoms: C3_3  and  C4_4 
REMARK    3  A    between atoms: C4_4  and  C5_5 
REMARK    4  A    between atoms: C5_5  and  C6_6 
REMARK    5  A    between atoms: C6_6  and  C7_7 
REMARK       I    between atoms: C7_7  and  N1_9 
REMARK    6  A    between atoms: C10_12  and  C12_14 
REMARK    7  A    between atoms: C12_14  and  C13_15 
REMARK    8  A    between atoms: C13_15  and  C14_16 
REMARK       I    between atoms: N2_24  and  C22_25 
REMARK    9  A    between atoms: C22_25  and  C23_27 
REMARK   10  A    between atoms: C26_30  and  O3_31 
REMARK   11  A    between atoms: O3_31  and  C27_32 
ROOT
HETATM    1  C3  UNL     1       0.452   1.430  -0.009  1.00  0.00     0.006 C 
HETATM    2  C20 UNL     1      -0.985   1.735  -0.366  1.00  0.00     0.025 C 
HETATM    3  C21 UNL     1      -1.759   2.311   0.770  1.00  0.00     0.105 C 
HETATM    4  N2  UNL     1      -2.163   1.249   1.680  1.00  0.00    -0.313 N 
HETATM    5  C22 UNL     1      -3.480   0.774   1.636  1.00  0.00     0.257 C 
HETATM    6  O2  UNL     1      -3.837  -0.134   2.409  1.00  0.00    -0.267 OA
HETATM    7  C30 UNL     1      -1.141   0.765   2.577  1.00  0.00     0.127 C 
HETATM    8  C31 UNL     1      -1.398  -0.662   2.829  1.00  0.00    -0.022 C 
HETATM    9  C32 UNL     1      -1.489  -1.064   4.281  1.00  0.00     0.028 C 
HETATM   10  C33 UNL     1      -1.547  -1.590   1.935  1.00  0.00    -0.007 C 
HETATM   11  C34 UNL     1      -1.508  -1.517   0.506  1.00  0.00    -0.004 A 
HETATM   12  C35 UNL     1      -2.484  -2.214  -0.222  1.00  0.00    -0.000 A 
HETATM   13  C36 UNL     1      -2.554  -2.225  -1.579  1.00  0.00    -0.000 A 
HETATM   14  C37 UNL     1      -1.612  -1.507  -2.325  1.00  0.00    -0.000 A 
HETATM   15  C38 UNL     1      -0.652  -0.821  -1.611  1.00  0.00    -0.004 A 
HETATM   16  C39 UNL     1      -0.584  -0.813  -0.233  1.00  0.00    -0.022 A 
HETATM   17  C40 UNL     1       0.529  -0.012   0.355  1.00  0.00     0.026 C 
ENDROOT
BRANCH   1  18
HETATM   18  C2  UNL     1       0.862   2.262   1.183  1.00  0.00     0.000 C 
HETATM   19  C1  UNL     1       0.734   3.747   0.875  1.00  0.00     0.000 C 
ENDBRANCH   1  18
BRANCH   1  20
HETATM   20  C4  UNL     1       1.342   1.762  -1.193  1.00  0.00     0.001 C 
BRANCH  20  21
HETATM   21  C5  UNL     1       2.785   1.493  -0.908  1.00  0.00     0.010 C 
BRANCH  21  22
HETATM   22  C6  UNL     1       3.110   0.075  -0.572  1.00  0.00     0.088 C 
BRANCH  22  23
HETATM   23  C7  UNL     1       2.788  -0.872  -1.657  1.00  0.00     0.233 C 
HETATM   24  O1  UNL     1       2.345  -0.360  -2.735  1.00  0.00    -0.272 OA
HETATM   25  N1  UNL     1       2.964  -2.265  -1.499  1.00  0.00    -0.324 N 
HETATM   26  C8  UNL     1       2.733  -3.379  -2.392  1.00  0.00     0.106 A 
HETATM   27  C10 UNL     1       3.407  -3.165  -0.491  1.00  0.00     0.069 A 
HETATM   28  C9  UNL     1       3.149  -4.374  -1.348  1.00  0.00     0.045 A 
HETATM   29  C11 UNL     1       2.510  -3.179   0.756  1.00  0.00     0.022 C 
BRANCH  27  30
HETATM   30  C12 UNL     1       4.883  -3.094  -0.142  1.00  0.00     0.025 C 
BRANCH  30  31
HETATM   31  C13 UNL     1       5.174  -1.703   0.349  1.00  0.00     0.028 C 
BRANCH  31  32
HETATM   32  C14 UNL     1       6.616  -1.549   0.729  1.00  0.00    -0.022 A 
HETATM   33  C15 UNL     1       7.530  -1.147  -0.217  1.00  0.00    -0.004 A 
HETATM   34  C16 UNL     1       8.857  -1.001   0.113  1.00  0.00    -0.000 A 
HETATM   35  C17 UNL     1       9.306  -1.251   1.394  1.00  0.00    -0.000 A 
HETATM   36  C18 UNL     1       8.379  -1.657   2.348  1.00  0.00    -0.000 A 
HETATM   37  C19 UNL     1       7.054  -1.800   2.004  1.00  0.00    -0.004 A 
ENDBRANCH  31  32
ENDBRANCH  30  31
ENDBRANCH  27  30
ENDBRANCH  22  23
ENDBRANCH  21  22
ENDBRANCH  20  21
ENDBRANCH   1  20
BRANCH   5  38
HETATM   38  C23 UNL     1      -4.445   1.314   0.711  1.00  0.00     0.056 A 
HETATM   39  C24 UNL     1      -5.741   0.854   0.651  1.00  0.00     0.007 A 
HETATM   40  C25 UNL     1      -6.673   1.357  -0.219  1.00  0.00     0.025 A 
HETATM   41  C26 UNL     1      -6.346   2.365  -1.088  1.00  0.00     0.100 A 
HETATM   42  C28 UNL     1      -5.055   2.850  -1.054  1.00  0.00     0.025 A 
HETATM   43  C29 UNL     1      -4.133   2.333  -0.175  1.00  0.00     0.007 A 
BRANCH  41  44
HETATM   44  O3  UNL     1      -7.287   2.893  -1.986  1.00  0.00    -0.275 OA
BRANCH  44  45
HETATM   45  C27 UNL     1      -6.882   3.931  -2.857  1.00  0.00     0.455 C 
HETATM   46  F1  UNL     1      -7.958   4.296  -3.643  1.00  0.00    -0.166 F 
HETATM   47  F2  UNL     1      -5.797   3.557  -3.609  1.00  0.00    -0.166 F 
ENDBRANCH  44  45
ENDBRANCH  41  44
ENDBRANCH   5  38
TORSDOF 11
