REMARK  15 active torsions:
REMARK  status: ('A' for Active; 'I' for Inactive)
REMARK    1  A    between atoms: C3_3  and  C4_4 
REMARK    2  A    between atoms: C3_3  and  C12_18 
REMARK    3  A    between atoms: C4_4  and  C5_5 
REMARK    4  A    between atoms: C5_5  and  C6_6 
REMARK    5  A    between atoms: C6_6  and  N1_7 
REMARK    6  A    between atoms: N1_7  and  S1_8 
REMARK    7  A    between atoms: S1_8  and  N2_11 
REMARK    8  A    between atoms: C12_18  and  C13_20 
REMARK    9  A    between atoms: C13_20  and  C14_21 
REMARK   10  A    between atoms: C13_20  and  N3_28 
REMARK   11  A    between atoms: C14_21  and  C15_22 
REMARK       I    between atoms: N3_28  and  C21_29 
REMARK   12  A    between atoms: C21_29  and  C22_31 
REMARK   13  A    between atoms: C22_31  and  C23_32 
REMARK   14  A    between atoms: C22_31  and  S2_39 
REMARK   15  A    between atoms: C23_32  and  C24_33 
ROOT
HETATM    1  C13 UNL     1      -1.229   0.303  -0.078  1.00  0.00     0.172 C 
ENDROOT
BRANCH   1   2
HETATM    2  C12 UNL     1      -0.343   0.303  -1.264  1.00  0.00     0.191 C 
HETATM    3  O4  UNL     1      -0.472  -0.629  -2.096  1.00  0.00    -0.290 OA
BRANCH   2   4
HETATM    4  C3  UNL     1       0.624   1.322  -1.463  1.00  0.00     0.010 C 
HETATM    5  C2  UNL     1       0.810   2.322  -0.674  1.00  0.00    -0.027 C 
HETATM    6  C1  UNL     1       0.167   2.731   0.555  1.00  0.00     0.030 C 
BRANCH   4   7
HETATM    7  C4  UNL     1       1.516   1.246  -2.668  1.00  0.00     0.031 C 
BRANCH   7   8
HETATM    8  C5  UNL     1       2.273  -0.074  -2.539  1.00  0.00     0.032 C 
BRANCH   8   9
HETATM    9  C6  UNL     1       3.094  -0.096  -1.260  1.00  0.00     0.141 C 
BRANCH   9  10
HETATM   10  N1  UNL     1       4.015   1.017  -1.362  1.00  0.00    -0.171 NA
BRANCH  10  11
HETATM   11  S1  UNL     1       5.017   1.111   0.034  1.00  0.00     0.344 S 
HETATM   12  O1  UNL     1       5.374   2.524   0.332  1.00  0.00    -0.180 OA
HETATM   13  O2  UNL     1       4.269   0.486   1.178  1.00  0.00    -0.180 OA
BRANCH  11  14
HETATM   14  N2  UNL     1       6.433   0.157  -0.290  1.00  0.00    -0.236 N 
HETATM   15  C7  UNL     1       6.342  -1.234  -0.545  1.00  0.00     0.114 C 
HETATM   16  C8  UNL     1       7.376  -2.022  -0.324  1.00  0.00     0.136 C 
HETATM   17  O3  UNL     1       8.539  -1.446   0.160  1.00  0.00    -0.325 OA
HETATM   18  C9  UNL     1       8.628  -0.101   0.589  1.00  0.00     0.172 C 
HETATM   19  C10 UNL     1       7.742   0.774  -0.307  1.00  0.00     0.129 C 
HETATM   20  C11 UNL     1       7.672   2.148   0.306  1.00  0.00     0.028 C 
ENDBRANCH  11  14
ENDBRANCH  10  11
ENDBRANCH   9  10
ENDBRANCH   8   9
ENDBRANCH   7   8
ENDBRANCH   4   7
ENDBRANCH   2   4
ENDBRANCH   1   2
BRANCH   1  21
HETATM   21  C14 UNL     1      -0.357   0.046   1.159  1.00  0.00     0.059 C 
BRANCH  21  22
HETATM   22  C15 UNL     1      -1.256   0.045   2.338  1.00  0.00    -0.020 A 
HETATM   23  C16 UNL     1      -1.542   1.187   3.046  1.00  0.00    -0.004 A 
HETATM   24  C17 UNL     1      -2.375   1.215   4.147  1.00  0.00    -0.000 A 
HETATM   25  C18 UNL     1      -2.961   0.031   4.570  1.00  0.00    -0.000 A 
HETATM   26  C19 UNL     1      -2.680  -1.117   3.866  1.00  0.00    -0.000 A 
HETATM   27  C20 UNL     1      -1.849  -1.127   2.774  1.00  0.00    -0.004 A 
ENDBRANCH  21  22
ENDBRANCH   1  21
BRANCH   1  28
HETATM   28  N3  UNL     1      -2.213  -0.785  -0.174  1.00  0.00    -0.231 NA
HETATM   29  C21 UNL     1      -3.129  -0.866  -1.240  1.00  0.00     0.262 C 
HETATM   30  O5  UNL     1      -3.071   0.041  -2.117  1.00  0.00    -0.270 OA
BRANCH  29  31
HETATM   31  C22 UNL     1      -4.122  -1.931  -1.372  1.00  0.00     0.132 C 
BRANCH  31  32
HETATM   32  C23 UNL     1      -5.063  -1.966  -0.204  1.00  0.00     0.047 C 
BRANCH  32  33
HETATM   33  C24 UNL     1      -5.807  -0.694  -0.060  1.00  0.00    -0.021 A 
HETATM   34  C25 UNL     1      -5.334   0.348   0.704  1.00  0.00    -0.004 A 
HETATM   35  C26 UNL     1      -6.079   1.481   0.783  1.00  0.00    -0.000 A 
HETATM   36  C27 UNL     1      -7.279   1.637   0.140  1.00  0.00    -0.000 A 
HETATM   37  C28 UNL     1      -7.746   0.584  -0.626  1.00  0.00    -0.000 A 
HETATM   38  C29 UNL     1      -7.007  -0.560  -0.714  1.00  0.00    -0.004 A 
ENDBRANCH  32  33
ENDBRANCH  31  32
BRANCH  31  39
HETATM   39  S2  UNL     1      -3.371  -3.557  -1.633  1.00  0.00    -0.130 SA
HETATM   40  C30 UNL     1      -4.606  -4.852  -1.796  1.00  0.00     0.070 C 
ENDBRANCH  31  39
ENDBRANCH  29  31
ENDBRANCH   1  28
TORSDOF 15
