REMARK  11 active torsions:
REMARK  status: ('A' for Active; 'I' for Inactive)
REMARK    1  A    between atoms: C2_2  and  C3_3 
REMARK    2  A    between atoms: C3_3  and  C4_4 
REMARK       I    between atoms: C4_4  and  N1_6 
REMARK    3  A    between atoms: N1_6  and  C5_7 
REMARK    4  A    between atoms: N1_6  and  C21_26 
REMARK    5  A    between atoms: C5_7  and  C6_8 
REMARK    6  A    between atoms: C11_13  and  C12_14 
REMARK       I    between atoms: C12_14  and  N2_16 
REMARK    7  A    between atoms: N2_16  and  C13_17 
REMARK    8  A    between atoms: C13_17  and  C14_18 
REMARK    9  A    between atoms: C14_18  and  O3_19 
REMARK   10  A    between atoms: O3_19  and  C15_20 
REMARK       I    between atoms: N3_30  and  C25_31 
REMARK   11  A    between atoms: C25_31  and  C26_33 
ROOT
HETATM    1  C4  UNL     1       1.135  -2.924  -0.518  1.00  0.00     0.235 C 
HETATM    2  O1  UNL     1       0.081  -3.482  -0.973  1.00  0.00    -0.272 OA
HETATM    3  N1  UNL     1       0.942  -1.816   0.335  1.00  0.00    -0.300 N 
ENDROOT
BRANCH   3   4
HETATM    4  C5  UNL     1      -0.445  -1.386   0.643  1.00  0.00     0.129 C 
BRANCH   4   5
HETATM    5  C6  UNL     1      -0.866  -0.381  -0.387  1.00  0.00    -0.018 C 
HETATM    6  C7  UNL     1      -1.913  -0.589  -1.176  1.00  0.00    -0.032 C 
HETATM    7  C8  UNL     1      -2.373   0.354  -2.200  1.00  0.00     0.025 C 
HETATM    8  C9  UNL     1      -1.327   1.259  -2.747  1.00  0.00     0.005 C 
HETATM    9  C10 UNL     1      -0.021   1.206  -2.022  1.00  0.00     0.014 C 
HETATM   10  C11 UNL     1      -0.126   0.897  -0.571  1.00  0.00     0.101 C 
BRANCH  10  11
HETATM   11  C12 UNL     1      -0.828   1.942   0.195  1.00  0.00     0.255 C 
HETATM   12  O2  UNL     1      -0.292   2.595   1.137  1.00  0.00    -0.270 OA
HETATM   13  N2  UNL     1      -2.170   2.251  -0.116  1.00  0.00    -0.235 NA
BRANCH  13  14
HETATM   14  C13 UNL     1      -2.875   3.292   0.645  1.00  0.00     0.161 C 
BRANCH  14  15
HETATM   15  C14 UNL     1      -2.881   2.839   2.092  1.00  0.00     0.175 C 
BRANCH  15  16
HETATM   16  O3  UNL     1      -3.547   1.596   2.225  1.00  0.00    -0.329 OA
BRANCH  16  17
HETATM   17  C15 UNL     1      -4.881   1.431   1.861  1.00  0.00     0.094 A 
HETATM   18  C16 UNL     1      -5.465   0.191   2.019  1.00  0.00     0.024 A 
HETATM   19  C17 UNL     1      -6.799  -0.025   1.668  1.00  0.00     0.002 A 
HETATM   20  C18 UNL     1      -7.497   1.047   1.163  1.00  0.00     0.000 A 
HETATM   21  C19 UNL     1      -6.913   2.290   1.005  1.00  0.00     0.002 A 
HETATM   22  C20 UNL     1      -5.579   2.499   1.357  1.00  0.00     0.024 A 
ENDBRANCH  16  17
ENDBRANCH  15  16
ENDBRANCH  14  15
ENDBRANCH  13  14
ENDBRANCH  10  11
ENDBRANCH   4   5
ENDBRANCH   3   4
BRANCH   3  23
HETATM   23  C21 UNL     1       1.973  -1.043   0.953  1.00  0.00     0.172 C 
HETATM   24  C22 UNL     1       1.861  -1.295   2.464  1.00  0.00     0.048 C 
HETATM   25  C23 UNL     1       2.673  -2.564   2.603  1.00  0.00     0.028 C 
HETATM   26  C24 UNL     1       3.627  -2.592   1.416  1.00  0.00     0.106 C 
HETATM   27  N3  UNL     1       3.321  -1.379   0.663  1.00  0.00    -0.300 N 
HETATM   28  C25 UNL     1       4.252  -0.701  -0.165  1.00  0.00     0.259 C 
HETATM   29  O4  UNL     1       5.447  -1.143  -0.308  1.00  0.00    -0.267 OA
BRANCH  28  30
HETATM   30  C26 UNL     1       3.952   0.519  -0.898  1.00  0.00     0.067 A 
HETATM   31  C27 UNL     1       4.102   1.759  -0.252  1.00  0.00     0.006 A 
HETATM   32  C28 UNL     1       3.817   2.935  -0.902  1.00  0.00     0.000 A 
HETATM   33  C29 UNL     1       3.375   2.973  -2.203  1.00  0.00     0.001 A 
HETATM   34  C30 UNL     1       3.225   1.767  -2.844  1.00  0.00     0.012 A 
HETATM   35  C31 UNL     1       3.511   0.560  -2.193  1.00  0.00     0.062 A 
HETATM   36 CL1  UNL     1       3.320  -0.947  -3.062  1.00  0.00    -0.082 Cl
ENDBRANCH  28  30
ENDBRANCH   3  23
BRANCH   1  37
HETATM   37  C3  UNL     1       2.443  -3.486  -0.922  1.00  0.00     0.088 C 
BRANCH  37  38
HETATM   38  C2  UNL     1       2.266  -4.664  -1.835  1.00  0.00     0.010 C 
HETATM   39  C1  UNL     1       1.477  -5.784  -1.175  1.00  0.00     0.001 C 
ENDBRANCH  37  38
ENDBRANCH   1  37
TORSDOF 11
