REMARK  13 active torsions:
REMARK  status: ('A' for Active; 'I' for Inactive)
REMARK    1  A    between atoms: C2_2  and  O1_3 
REMARK    2  A    between atoms: O1_3  and  C3_4 
REMARK    3  A    between atoms: C3_4  and  C4_6 
REMARK    4  A    between atoms: C4_6  and  C5_7 
REMARK    5  A    between atoms: C4_6  and  C14_21 
REMARK       I    between atoms: C5_7  and  N1_9 
REMARK    6  A    between atoms: N1_9  and  C6_10 
REMARK    7  A    between atoms: C6_10  and  C7_11 
REMARK    8  A    between atoms: C7_11  and  N2_12 
REMARK    9  A    between atoms: C10_15  and  C11_16 
REMARK   10  A    between atoms: N5_24  and  C17_25 
REMARK   11  A    between atoms: C20_30  and  C21_31 
REMARK   12  A    between atoms: C21_31  and  C22_32 
REMARK   13  A    between atoms: C25_35  and  N8_36 
ROOT
HETATM    1  C14 UNL     1       0.145  -1.121  -0.306  1.00  0.00     0.022 C 
HETATM    2  C15 UNL     1      -0.092   0.238  -0.891  1.00  0.00     0.025 C 
HETATM    3  C16 UNL     1      -1.528   0.708  -0.618  1.00  0.00     0.103 C 
HETATM    4  N5  UNL     1      -2.069  -0.145   0.408  1.00  0.00    -0.333 N 
HETATM    5  C28 UNL     1      -1.273  -0.272   1.604  1.00  0.00     0.103 C 
HETATM    6  C29 UNL     1      -0.151  -1.245   1.149  1.00  0.00     0.025 C 
ENDROOT
BRANCH   1   7
HETATM    7  C4  UNL     1       1.413  -1.754  -0.671  1.00  0.00     0.167 C 
BRANCH   7   8
HETATM    8  C3  UNL     1       1.540  -3.095  -0.064  1.00  0.00     0.281 C 
HETATM    9  O2  UNL     1       0.723  -3.508   0.792  1.00  0.00    -0.264 OA
BRANCH   8  10
HETATM   10  O1  UNL     1       2.588  -3.897  -0.464  1.00  0.00    -0.301 OA
BRANCH  10  11
HETATM   11  C2  UNL     1       2.788  -5.180   0.048  1.00  0.00     0.152 C 
HETATM   12  C1  UNL     1       3.015  -5.239   1.518  1.00  0.00     0.035 C 
ENDBRANCH  10  11
ENDBRANCH   8  10
ENDBRANCH   7   8
BRANCH   7  13
HETATM   13  C5  UNL     1       2.646  -0.995  -0.370  1.00  0.00     0.261 C 
HETATM   14  O3  UNL     1       2.640   0.062   0.327  1.00  0.00    -0.270 OA
HETATM   15  N1  UNL     1       3.935  -1.412  -0.847  1.00  0.00    -0.235 NA
BRANCH  15  16
HETATM   16  C6  UNL     1       5.113  -0.617  -0.524  1.00  0.00     0.164 C 
BRANCH  16  17
HETATM   17  C7  UNL     1       6.302  -1.357  -1.170  1.00  0.00     0.276 C 
BRANCH  17  18
HETATM   18  N2  UNL     1       7.496  -0.530  -0.883  1.00  0.00     0.139 N 
HETATM   19  C8  UNL     1       7.777  -0.548   0.505  1.00  0.00     0.251 C 
HETATM   20  C9  UNL     1       8.308   0.699   1.121  1.00  0.00     0.043 C 
HETATM   21  C10 UNL     1       7.714   1.971   0.585  1.00  0.00     0.060 C 
HETATM   22  C12 UNL     1       6.526   1.548  -0.297  1.00  0.00     0.043 C 
HETATM   23  C13 UNL     1       7.181   0.767  -1.444  1.00  0.00     0.251 C 
BRANCH  21  24
HETATM   24  C11 UNL     1       8.703   2.664  -0.280  1.00  0.00     0.149 C 
HETATM   25  N3  UNL     1       9.013   3.900  -0.058  1.00  0.00    -0.138 N 
HETATM   26  N4  UNL     1       9.314   1.998  -1.363  1.00  0.00    -0.083 NA
ENDBRANCH  21  24
ENDBRANCH  17  18
ENDBRANCH  16  17
ENDBRANCH  15  16
ENDBRANCH   7  13
ENDBRANCH   1   7
BRANCH   4  27
HETATM   27  C17 UNL     1      -3.242  -0.880   0.217  1.00  0.00     0.154 A 
HETATM   28  N6  UNL     1      -3.343  -2.136   0.784  1.00  0.00    -0.224 NA
HETATM   29  C18 UNL     1      -4.425  -2.920   0.620  1.00  0.00     0.121 A 
HETATM   30  C19 UNL     1      -5.467  -2.467  -0.129  1.00  0.00     0.119 A 
HETATM   31  N7  UNL     1      -5.410  -1.257  -0.693  1.00  0.00    -0.243 NA
HETATM   32  C20 UNL     1      -4.304  -0.454  -0.530  1.00  0.00     0.097 A 
BRANCH  32  33
HETATM   33  C21 UNL     1      -4.408   0.899  -1.124  1.00  0.00     0.075 C 
BRANCH  33  34
HETATM   34  C22 UNL     1      -5.554   1.667  -0.594  1.00  0.00    -0.016 A 
HETATM   35  C23 UNL     1      -6.753   1.629  -1.389  1.00  0.00    -0.002 A 
HETATM   36  C24 UNL     1      -7.862   2.292  -0.976  1.00  0.00     0.023 A 
HETATM   37  C25 UNL     1      -7.914   3.022   0.188  1.00  0.00     0.127 A 
HETATM   38  C26 UNL     1      -6.779   3.082   0.979  1.00  0.00     0.023 A 
HETATM   39  C27 UNL     1      -5.635   2.389   0.542  1.00  0.00    -0.002 A 
BRANCH  37  40
HETATM   40  N8  UNL     1      -9.154   3.651   0.558  1.00  0.00    -0.114 N 
HETATM   41  O4  UNL     1     -10.255   3.560  -0.255  1.00  0.00    -0.532 OA
HETATM   42  O5  UNL     1      -9.262   4.283   1.622  1.00  0.00    -0.532 OA
ENDBRANCH  37  40
ENDBRANCH  33  34
ENDBRANCH  32  33
ENDBRANCH   4  27
TORSDOF 13
